<?xml version="1.0" encoding="UTF-8"?>

<!-- generated on 2022-12-14 11:07:59 by Eclipse SUMO duarouter Version 1.15.0
<configuration xmlns:xsi="http://www.w3.org/2001/XMLSchema-instance" xsi:noNamespaceSchemaLocation="http://sumo.dlr.de/xsd/duarouterConfiguration.xsd">

    <input>
        <net-file value="data/SUMO_Traffic_Scenario/Scenario-1/network.net.xml"/>
        <route-files value="data/SUMO_Traffic_Scenario/Scenario-1/myflow.rou.xml"/>
    </input>

    <output>
        <output-file value="data/SUMO_Traffic_Scenario/Scenario-1/routes.rou.xml"/>
    </output>

    <processing>
        <randomize-flows value="true"/>
        <repair value="True"/>
    </processing>

    <defaults>
        <departlane value="free"/>
        <departspeed value="random"/>
    </defaults>

    <random_number>
        <random value="true"/>
    </random_number>

</configuration>
-->

<routes xmlns:xsi="http://www.w3.org/2001/XMLSchema-instance" xsi:noNamespaceSchemaLocation="http://sumo.dlr.de/xsd/routes_file.xsd">
    <vType id="test" length="5.00" maxSpeed="10.00" accel="0.8" decel="4.5" sigma="0.5"/>
    <vehicle id="test0" type="test" depart="0.00" departLane="free" departSpeed="random" color="0,255,242">
        <route color="0,255,242" edges="-E2 -link -E0"/>
    </vehicle>
    <vehicle id="f1.0" depart="3.48" departLane="free" departSpeed="random">
        <route edges="E0 link E2"/>
    </vehicle>
    <vehicle id="f2.0" depart="11.16" departLane="free" departSpeed="random">
        <route edges="-E2 -link -E0"/>
    </vehicle>
    <vehicle id="f1.1" depart="25.45" departLane="free" departSpeed="random">
        <route edges="E0 link E2"/>
    </vehicle>
    <vehicle id="f1.2" depart="26.93" departLane="free" departSpeed="random">
        <route edges="E0 link E2"/>
    </vehicle>
    <vehicle id="f1.3" depart="29.58" departLane="free" departSpeed="random">
        <route edges="E0 link E2"/>
    </vehicle>
    <vehicle id="f1.4" depart="30.43" departLane="free" departSpeed="random">
        <route edges="E0 link E2"/>
    </vehicle>
    <vehicle id="f1.5" depart="33.26" departLane="free" departSpeed="random">
        <route edges="E0 link E2"/>
    </vehicle>
    <vehicle id="f1.6" depart="35.65" departLane="free" departSpeed="random">
        <route edges="E0 link E2"/>
    </vehicle>
    <vehicle id="f2.1" depart="35.65" departLane="free" departSpeed="random">
        <route edges="-E2 -link -E0"/>
    </vehicle>
    <vehicle id="f1.7" depart="40.98" departLane="free" departSpeed="random">
        <route edges="E0 link E2"/>
    </vehicle>
    <vehicle id="f1.8" depart="41.74" departLane="free" departSpeed="random">
        <route edges="E0 link E2"/>
    </vehicle>
    <vehicle id="f1.9" depart="47.28" departLane="free" departSpeed="random">
        <route edges="E0 link E2"/>
    </vehicle>
    <vehicle id="f1.10" depart="48.34" departLane="free" departSpeed="random">
        <route edges="E0 link E2"/>
    </vehicle>
    <vehicle id="f1.11" depart="49.42" departLane="free" departSpeed="random">
        <route edges="E0 link E2"/>
    </vehicle>
    <vehicle id="test1" type="test" depart="60.00" departLane="free" departSpeed="random" color="0,255,242">
        <route color="0,255,242" edges="-E2 -link -E0"/>
    </vehicle>
    <vehicle id="f1.12" depart="64.17" departLane="free" departSpeed="random">
        <route edges="E0 link E2"/>
    </vehicle>
    <vehicle id="f1.13" depart="66.37" departLane="free" departSpeed="random">
        <route edges="E0 link E2"/>
    </vehicle>
    <vehicle id="f1.14" depart="75.09" departLane="free" departSpeed="random">
        <route edges="E0 link E2"/>
    </vehicle>
    <vehicle id="f1.15" depart="83.94" departLane="free" departSpeed="random">
        <route edges="E0 link E2"/>
    </vehicle>
    <vehicle id="f1.16" depart="88.74" departLane="free" departSpeed="random">
        <route edges="E0 link E2"/>
    </vehicle>
    <vehicle id="f1.17" depart="89.56" departLane="free" departSpeed="random">
        <route edges="E0 link E2"/>
    </vehicle>
    <vehicle id="f1.18" depart="93.47" departLane="free" departSpeed="random">
        <route edges="E0 link E2"/>
    </vehicle>
    <vehicle id="f1.19" depart="96.55" departLane="free" departSpeed="random">
        <route edges="E0 link E2"/>
    </vehicle>
    <vehicle id="f1.20" depart="103.21" departLane="free" departSpeed="random">
        <route edges="E0 link E2"/>
    </vehicle>
    <vehicle id="f2.2" depart="104.00" departLane="free" departSpeed="random">
        <route edges="-E2 -link -E0"/>
    </vehicle>
    <vehicle id="f1.21" depart="114.09" departLane="free" departSpeed="random">
        <route edges="E0 link E2"/>
    </vehicle>
    <vehicle id="test2" type="test" depart="120.00" departLane="free" departSpeed="random" color="0,255,242">
        <route color="0,255,242" edges="-E2 -link -E0"/>
    </vehicle>
    <vehicle id="f1.22" depart="122.72" departLane="free" departSpeed="random">
        <route edges="E0 link E2"/>
    </vehicle>
    <vehicle id="f1.23" depart="133.59" departLane="free" departSpeed="random">
        <route edges="E0 link E2"/>
    </vehicle>
    <vehicle id="f1.24" depart="135.25" departLane="free" departSpeed="random">
        <route edges="E0 link E2"/>
    </vehicle>
    <vehicle id="f1.25" depart="135.52" departLane="free" departSpeed="random">
        <route edges="E0 link E2"/>
    </vehicle>
    <vehicle id="f1.26" depart="136.86" departLane="free" departSpeed="random">
        <route edges="E0 link E2"/>
    </vehicle>
    <vehicle id="f1.27" depart="145.59" departLane="free" departSpeed="random">
        <route edges="E0 link E2"/>
    </vehicle>
    <vehicle id="f1.28" depart="145.73" departLane="free" departSpeed="random">
        <route edges="E0 link E2"/>
    </vehicle>
    <vehicle id="f1.29" depart="155.19" departLane="free" departSpeed="random">
        <route edges="E0 link E2"/>
    </vehicle>
    <vehicle id="f1.30" depart="157.32" departLane="free" departSpeed="random">
        <route edges="E0 link E2"/>
    </vehicle>
    <vehicle id="f1.31" depart="158.15" departLane="free" departSpeed="random">
        <route edges="E0 link E2"/>
    </vehicle>
    <vehicle id="f2.3" depart="162.08" departLane="free" departSpeed="random">
        <route edges="-E2 -link -E0"/>
    </vehicle>
    <vehicle id="f1.32" depart="167.38" departLane="free" departSpeed="random">
        <route edges="E0 link E2"/>
    </vehicle>
    <vehicle id="f1.33" depart="167.97" departLane="free" departSpeed="random">
        <route edges="E0 link E2"/>
    </vehicle>
    <vehicle id="f1.34" depart="168.87" departLane="free" departSpeed="random">
        <route edges="E0 link E2"/>
    </vehicle>
    <vehicle id="test3" type="test" depart="180.00" departLane="free" departSpeed="random" color="0,255,242">
        <route color="0,255,242" edges="-E2 -link -E0"/>
    </vehicle>
    <vehicle id="f1.35" depart="181.56" departLane="free" departSpeed="random">
        <route edges="E0 link E2"/>
    </vehicle>
    <vehicle id="f1.36" depart="184.30" departLane="free" departSpeed="random">
        <route edges="E0 link E2"/>
    </vehicle>
    <vehicle id="f1.37" depart="188.46" departLane="free" departSpeed="random">
        <route edges="E0 link E2"/>
    </vehicle>
    <vehicle id="f1.38" depart="197.05" departLane="free" departSpeed="random">
        <route edges="E0 link E2"/>
    </vehicle>
    <vehicle id="f1.39" depart="200.90" departLane="free" departSpeed="random">
        <route edges="E0 link E2"/>
    </vehicle>
    <vehicle id="f1.40" depart="201.97" departLane="free" departSpeed="random">
        <route edges="E0 link E2"/>
    </vehicle>
    <vehicle id="f1.41" depart="204.67" departLane="free" departSpeed="random">
        <route edges="E0 link E2"/>
    </vehicle>
    <vehicle id="f1.42" depart="205.41" departLane="free" departSpeed="random">
        <route edges="E0 link E2"/>
    </vehicle>
    <vehicle id="f1.43" depart="211.24" departLane="free" departSpeed="random">
        <route edges="E0 link E2"/>
    </vehicle>
    <vehicle id="f1.44" depart="215.12" departLane="free" departSpeed="random">
        <route edges="E0 link E2"/>
    </vehicle>
    <vehicle id="f1.45" depart="216.66" departLane="free" departSpeed="random">
        <route edges="E0 link E2"/>
    </vehicle>
    <vehicle id="f1.46" depart="218.41" departLane="free" departSpeed="random">
        <route edges="E0 link E2"/>
    </vehicle>
    <vehicle id="f1.47" depart="226.03" departLane="free" departSpeed="random">
        <route edges="E0 link E2"/>
    </vehicle>
    <vehicle id="f1.48" depart="235.68" departLane="free" departSpeed="random">
        <route edges="E0 link E2"/>
    </vehicle>
    <vehicle id="f1.49" depart="237.64" departLane="free" departSpeed="random">
        <route edges="E0 link E2"/>
    </vehicle>
    <vehicle id="test4" type="test" depart="240.00" departLane="free" departSpeed="random" color="0,255,242">
        <route color="0,255,242" edges="-E2 -link -E0"/>
    </vehicle>
    <vehicle id="f1.50" depart="242.44" departLane="free" departSpeed="random">
        <route edges="E0 link E2"/>
    </vehicle>
    <vehicle id="f1.51" depart="244.11" departLane="free" departSpeed="random">
        <route edges="E0 link E2"/>
    </vehicle>
    <vehicle id="f1.52" depart="246.69" departLane="free" departSpeed="random">
        <route edges="E0 link E2"/>
    </vehicle>
    <vehicle id="f1.53" depart="251.07" departLane="free" departSpeed="random">
        <route edges="E0 link E2"/>
    </vehicle>
    <vehicle id="f1.54" depart="258.26" departLane="free" departSpeed="random">
        <route edges="E0 link E2"/>
    </vehicle>
    <vehicle id="f1.55" depart="259.50" departLane="free" departSpeed="random">
        <route edges="E0 link E2"/>
    </vehicle>
    <vehicle id="f1.56" depart="262.29" departLane="free" departSpeed="random">
        <route edges="E0 link E2"/>
    </vehicle>
    <vehicle id="f1.57" depart="264.16" departLane="free" departSpeed="random">
        <route edges="E0 link E2"/>
    </vehicle>
    <vehicle id="f1.58" depart="266.45" departLane="free" departSpeed="random">
        <route edges="E0 link E2"/>
    </vehicle>
    <vehicle id="f1.59" depart="271.92" departLane="free" departSpeed="random">
        <route edges="E0 link E2"/>
    </vehicle>
    <vehicle id="f1.60" depart="273.79" departLane="free" departSpeed="random">
        <route edges="E0 link E2"/>
    </vehicle>
    <vehicle id="f1.61" depart="294.47" departLane="free" departSpeed="random">
        <route edges="E0 link E2"/>
    </vehicle>
    <vehicle id="f1.62" depart="295.14" departLane="free" departSpeed="random">
        <route edges="E0 link E2"/>
    </vehicle>
    <vehicle id="test5" type="test" depart="300.00" departLane="free" departSpeed="random" color="0,255,242">
        <route color="0,255,242" edges="-E2 -link -E0"/>
    </vehicle>
    <vehicle id="f1.63" depart="304.91" departLane="free" departSpeed="random">
        <route edges="E0 link E2"/>
    </vehicle>
    <vehicle id="f1.64" depart="307.90" departLane="free" departSpeed="random">
        <route edges="E0 link E2"/>
    </vehicle>
    <vehicle id="f1.65" depart="308.07" departLane="free" departSpeed="random">
        <route edges="E0 link E2"/>
    </vehicle>
    <vehicle id="f1.66" depart="312.34" departLane="free" departSpeed="random">
        <route edges="E0 link E2"/>
    </vehicle>
    <vehicle id="f1.67" depart="318.07" departLane="free" departSpeed="random">
        <route edges="E0 link E2"/>
    </vehicle>
    <vehicle id="f1.68" depart="320.61" departLane="free" departSpeed="random">
        <route edges="E0 link E2"/>
    </vehicle>
    <vehicle id="f2.4" depart="321.93" departLane="free" departSpeed="random">
        <route edges="-E2 -link -E0"/>
    </vehicle>
    <vehicle id="f1.69" depart="325.16" departLane="free" departSpeed="random">
        <route edges="E0 link E2"/>
    </vehicle>
    <vehicle id="f1.70" depart="326.81" departLane="free" departSpeed="random">
        <route edges="E0 link E2"/>
    </vehicle>
    <vehicle id="f1.71" depart="327.10" departLane="free" departSpeed="random">
        <route edges="E0 link E2"/>
    </vehicle>
    <vehicle id="f1.72" depart="335.38" departLane="free" departSpeed="random">
        <route edges="E0 link E2"/>
    </vehicle>
    <vehicle id="f1.73" depart="338.31" departLane="free" departSpeed="random">
        <route edges="E0 link E2"/>
    </vehicle>
    <vehicle id="f1.74" depart="343.89" departLane="free" departSpeed="random">
        <route edges="E0 link E2"/>
    </vehicle>
    <vehicle id="f2.5" depart="350.71" departLane="free" departSpeed="random">
        <route edges="-E2 -link -E0"/>
    </vehicle>
    <vehicle id="f1.75" depart="354.06" departLane="free" departSpeed="random">
        <route edges="E0 link E2"/>
    </vehicle>
    <vehicle id="f1.76" depart="358.55" departLane="free" departSpeed="random">
        <route edges="E0 link E2"/>
    </vehicle>
    <vehicle id="test6" type="test" depart="360.00" departLane="free" departSpeed="random" color="0,255,242">
        <route color="0,255,242" edges="-E2 -link -E0"/>
    </vehicle>
    <vehicle id="f1.77" depart="364.86" departLane="free" departSpeed="random">
        <route edges="E0 link E2"/>
    </vehicle>
    <vehicle id="f2.6" depart="369.69" departLane="free" departSpeed="random">
        <route edges="-E2 -link -E0"/>
    </vehicle>
    <vehicle id="f1.78" depart="377.59" departLane="free" departSpeed="random">
        <route edges="E0 link E2"/>
    </vehicle>
    <vehicle id="f1.79" depart="379.67" departLane="free" departSpeed="random">
        <route edges="E0 link E2"/>
    </vehicle>
    <vehicle id="f1.80" depart="380.48" departLane="free" departSpeed="random">
        <route edges="E0 link E2"/>
    </vehicle>
    <vehicle id="f1.81" depart="380.62" departLane="free" departSpeed="random">
        <route edges="E0 link E2"/>
    </vehicle>
    <vehicle id="f1.82" depart="384.81" departLane="free" departSpeed="random">
        <route edges="E0 link E2"/>
    </vehicle>
    <vehicle id="f2.7" depart="391.04" departLane="free" departSpeed="random">
        <route edges="-E2 -link -E0"/>
    </vehicle>
    <vehicle id="f1.83" depart="395.57" departLane="free" departSpeed="random">
        <route edges="E0 link E2"/>
    </vehicle>
    <vehicle id="f1.84" depart="396.67" departLane="free" departSpeed="random">
        <route edges="E0 link E2"/>
    </vehicle>
    <vehicle id="f1.85" depart="405.57" departLane="free" departSpeed="random">
        <route edges="E0 link E2"/>
    </vehicle>
    <vehicle id="test7" type="test" depart="420.00" departLane="free" departSpeed="random" color="0,255,242">
        <route color="0,255,242" edges="-E2 -link -E0"/>
    </vehicle>
    <vehicle id="f1.86" depart="424.38" departLane="free" departSpeed="random">
        <route edges="E0 link E2"/>
    </vehicle>
    <vehicle id="f1.87" depart="425.02" departLane="free" departSpeed="random">
        <route edges="E0 link E2"/>
    </vehicle>
    <vehicle id="f1.88" depart="432.43" departLane="free" departSpeed="random">
        <route edges="E0 link E2"/>
    </vehicle>
    <vehicle id="f1.89" depart="434.20" departLane="free" departSpeed="random">
        <route edges="E0 link E2"/>
    </vehicle>
    <vehicle id="f1.90" depart="437.01" departLane="free" departSpeed="random">
        <route edges="E0 link E2"/>
    </vehicle>
    <vehicle id="f1.91" depart="438.96" departLane="free" departSpeed="random">
        <route edges="E0 link E2"/>
    </vehicle>
    <vehicle id="f1.92" depart="440.40" departLane="free" departSpeed="random">
        <route edges="E0 link E2"/>
    </vehicle>
    <vehicle id="f1.93" depart="443.94" departLane="free" departSpeed="random">
        <route edges="E0 link E2"/>
    </vehicle>
    <vehicle id="f1.94" depart="445.58" departLane="free" departSpeed="random">
        <route edges="E0 link E2"/>
    </vehicle>
    <vehicle id="f1.95" depart="453.49" departLane="free" departSpeed="random">
        <route edges="E0 link E2"/>
    </vehicle>
    <vehicle id="f1.96" depart="460.97" departLane="free" departSpeed="random">
        <route edges="E0 link E2"/>
    </vehicle>
    <vehicle id="f2.8" depart="466.56" departLane="free" departSpeed="random">
        <route edges="-E2 -link -E0"/>
    </vehicle>
    <vehicle id="f1.97" depart="467.66" departLane="free" departSpeed="random">
        <route edges="E0 link E2"/>
    </vehicle>
    <vehicle id="f1.98" depart="471.65" departLane="free" departSpeed="random">
        <route edges="E0 link E2"/>
    </vehicle>
    <vehicle id="f2.9" depart="474.65" departLane="free" departSpeed="random">
        <route edges="-E2 -link -E0"/>
    </vehicle>
    <vehicle id="f1.99" depart="475.37" departLane="free" departSpeed="random">
        <route edges="E0 link E2"/>
    </vehicle>
    <vehicle id="f1.100" depart="475.84" departLane="free" departSpeed="random">
        <route edges="E0 link E2"/>
    </vehicle>
    <vehicle id="f1.101" depart="475.94" departLane="free" departSpeed="random">
        <route edges="E0 link E2"/>
    </vehicle>
    <vehicle id="f1.102" depart="477.55" departLane="free" departSpeed="random">
        <route edges="E0 link E2"/>
    </vehicle>
    <vehicle id="test8" type="test" depart="480.00" departLane="free" departSpeed="random" color="0,255,242">
        <route color="0,255,242" edges="-E2 -link -E0"/>
    </vehicle>
    <vehicle id="f1.103" depart="480.99" departLane="free" departSpeed="random">
        <route edges="E0 link E2"/>
    </vehicle>
    <vehicle id="f1.104" depart="481.92" departLane="free" departSpeed="random">
        <route edges="E0 link E2"/>
    </vehicle>
    <vehicle id="f1.105" depart="487.80" departLane="free" departSpeed="random">
        <route edges="E0 link E2"/>
    </vehicle>
    <vehicle id="f1.106" depart="488.66" departLane="free" departSpeed="random">
        <route edges="E0 link E2"/>
    </vehicle>
    <vehicle id="f1.107" depart="489.79" departLane="free" departSpeed="random">
        <route edges="E0 link E2"/>
    </vehicle>
    <vehicle id="f1.108" depart="495.94" departLane="free" departSpeed="random">
        <route edges="E0 link E2"/>
    </vehicle>
    <vehicle id="f1.109" depart="501.55" departLane="free" departSpeed="random">
        <route edges="E0 link E2"/>
    </vehicle>
    <vehicle id="f1.110" depart="503.67" departLane="free" departSpeed="random">
        <route edges="E0 link E2"/>
    </vehicle>
    <vehicle id="f1.111" depart="504.19" departLane="free" departSpeed="random">
        <route edges="E0 link E2"/>
    </vehicle>
    <vehicle id="f1.112" depart="510.62" departLane="free" departSpeed="random">
        <route edges="E0 link E2"/>
    </vehicle>
    <vehicle id="f1.113" depart="510.91" departLane="free" departSpeed="random">
        <route edges="E0 link E2"/>
    </vehicle>
    <vehicle id="f1.114" depart="511.13" departLane="free" departSpeed="random">
        <route edges="E0 link E2"/>
    </vehicle>
    <vehicle id="f1.115" depart="516.88" departLane="free" departSpeed="random">
        <route edges="E0 link E2"/>
    </vehicle>
    <vehicle id="f1.116" depart="522.54" departLane="free" departSpeed="random">
        <route edges="E0 link E2"/>
    </vehicle>
    <vehicle id="f1.117" depart="522.71" departLane="free" departSpeed="random">
        <route edges="E0 link E2"/>
    </vehicle>
    <vehicle id="f1.118" depart="529.28" departLane="free" departSpeed="random">
        <route edges="E0 link E2"/>
    </vehicle>
    <vehicle id="test9" type="test" depart="540.00" departLane="free" departSpeed="random" color="0,255,242">
        <route color="0,255,242" edges="-E2 -link -E0"/>
    </vehicle>
    <vehicle id="f1.119" depart="541.14" departLane="free" departSpeed="random">
        <route edges="E0 link E2"/>
    </vehicle>
    <vehicle id="f1.120" depart="550.68" departLane="free" departSpeed="random">
        <route edges="E0 link E2"/>
    </vehicle>
    <vehicle id="f1.121" depart="553.50" departLane="free" departSpeed="random">
        <route edges="E0 link E2"/>
    </vehicle>
    <vehicle id="f1.122" depart="561.45" departLane="free" departSpeed="random">
        <route edges="E0 link E2"/>
    </vehicle>
    <vehicle id="f1.123" depart="563.61" departLane="free" departSpeed="random">
        <route edges="E0 link E2"/>
    </vehicle>
    <vehicle id="f1.124" depart="563.65" departLane="free" departSpeed="random">
        <route edges="E0 link E2"/>
    </vehicle>
    <vehicle id="f1.125" depart="581.91" departLane="free" departSpeed="random">
        <route edges="E0 link E2"/>
    </vehicle>
    <vehicle id="f1.126" depart="587.01" departLane="free" departSpeed="random">
        <route edges="E0 link E2"/>
    </vehicle>
    <vehicle id="f1.127" depart="598.44" departLane="free" departSpeed="random">
        <route edges="E0 link E2"/>
    </vehicle>
    <vehicle id="test10" type="test" depart="600.00" departLane="free" departSpeed="random" color="0,255,242">
        <route color="0,255,242" edges="-E2 -link -E0"/>
    </vehicle>
    <vehicle id="f1.128" depart="602.92" departLane="free" departSpeed="random">
        <route edges="E0 link E2"/>
    </vehicle>
    <vehicle id="f1.129" depart="606.24" departLane="free" departSpeed="random">
        <route edges="E0 link E2"/>
    </vehicle>
    <vehicle id="f1.130" depart="610.27" departLane="free" departSpeed="random">
        <route edges="E0 link E2"/>
    </vehicle>
    <vehicle id="f1.131" depart="610.63" departLane="free" departSpeed="random">
        <route edges="E0 link E2"/>
    </vehicle>
    <vehicle id="f1.132" depart="617.39" departLane="free" departSpeed="random">
        <route edges="E0 link E2"/>
    </vehicle>
    <vehicle id="f1.133" depart="619.83" departLane="free" departSpeed="random">
        <route edges="E0 link E2"/>
    </vehicle>
    <vehicle id="f1.134" depart="620.73" departLane="free" departSpeed="random">
        <route edges="E0 link E2"/>
    </vehicle>
    <vehicle id="f1.135" depart="627.86" departLane="free" departSpeed="random">
        <route edges="E0 link E2"/>
    </vehicle>
    <vehicle id="f1.136" depart="629.86" departLane="free" departSpeed="random">
        <route edges="E0 link E2"/>
    </vehicle>
    <vehicle id="f1.137" depart="632.18" departLane="free" departSpeed="random">
        <route edges="E0 link E2"/>
    </vehicle>
    <vehicle id="f1.138" depart="634.92" departLane="free" departSpeed="random">
        <route edges="E0 link E2"/>
    </vehicle>
    <vehicle id="f1.139" depart="635.02" departLane="free" departSpeed="random">
        <route edges="E0 link E2"/>
    </vehicle>
    <vehicle id="f1.140" depart="635.61" departLane="free" departSpeed="random">
        <route edges="E0 link E2"/>
    </vehicle>
    <vehicle id="f1.141" depart="638.77" departLane="free" departSpeed="random">
        <route edges="E0 link E2"/>
    </vehicle>
    <vehicle id="f1.142" depart="645.79" departLane="free" departSpeed="random">
        <route edges="E0 link E2"/>
    </vehicle>
    <vehicle id="f1.143" depart="655.93" departLane="free" departSpeed="random">
        <route edges="E0 link E2"/>
    </vehicle>
    <vehicle id="f1.144" depart="656.73" departLane="free" departSpeed="random">
        <route edges="E0 link E2"/>
    </vehicle>
    <vehicle id="f2.10" depart="656.93" departLane="free" departSpeed="random">
        <route edges="-E2 -link -E0"/>
    </vehicle>
    <vehicle id="test11" type="test" depart="660.00" departLane="free" departSpeed="random" color="0,255,242">
        <route color="0,255,242" edges="-E2 -link -E0"/>
    </vehicle>
    <vehicle id="f1.145" depart="662.52" departLane="free" departSpeed="random">
        <route edges="E0 link E2"/>
    </vehicle>
    <vehicle id="f1.146" depart="664.50" departLane="free" departSpeed="random">
        <route edges="E0 link E2"/>
    </vehicle>
    <vehicle id="f1.147" depart="665.40" departLane="free" departSpeed="random">
        <route edges="E0 link E2"/>
    </vehicle>
    <vehicle id="f1.148" depart="665.68" departLane="free" departSpeed="random">
        <route edges="E0 link E2"/>
    </vehicle>
    <vehicle id="f1.149" depart="670.09" departLane="free" departSpeed="random">
        <route edges="E0 link E2"/>
    </vehicle>
    <vehicle id="f1.150" depart="673.18" departLane="free" departSpeed="random">
        <route edges="E0 link E2"/>
    </vehicle>
    <vehicle id="f1.151" depart="675.69" departLane="free" departSpeed="random">
        <route edges="E0 link E2"/>
    </vehicle>
    <vehicle id="f1.152" depart="677.13" departLane="free" departSpeed="random">
        <route edges="E0 link E2"/>
    </vehicle>
    <vehicle id="f1.153" depart="689.50" departLane="free" departSpeed="random">
        <route edges="E0 link E2"/>
    </vehicle>
    <vehicle id="f1.154" depart="703.29" departLane="free" departSpeed="random">
        <route edges="E0 link E2"/>
    </vehicle>
    <vehicle id="f1.155" depart="707.67" departLane="free" departSpeed="random">
        <route edges="E0 link E2"/>
    </vehicle>
    <vehicle id="test12" type="test" depart="720.00" departLane="free" departSpeed="random" color="0,255,242">
        <route color="0,255,242" edges="-E2 -link -E0"/>
    </vehicle>
    <vehicle id="f1.156" depart="724.50" departLane="free" departSpeed="random">
        <route edges="E0 link E2"/>
    </vehicle>
    <vehicle id="f1.157" depart="729.61" departLane="free" departSpeed="random">
        <route edges="E0 link E2"/>
    </vehicle>
    <vehicle id="f1.158" depart="731.90" departLane="free" departSpeed="random">
        <route edges="E0 link E2"/>
    </vehicle>
    <vehicle id="f1.159" depart="732.10" departLane="free" departSpeed="random">
        <route edges="E0 link E2"/>
    </vehicle>
    <vehicle id="f1.160" depart="739.12" departLane="free" departSpeed="random">
        <route edges="E0 link E2"/>
    </vehicle>
    <vehicle id="f1.161" depart="744.73" departLane="free" departSpeed="random">
        <route edges="E0 link E2"/>
    </vehicle>
    <vehicle id="f1.162" depart="745.22" departLane="free" departSpeed="random">
        <route edges="E0 link E2"/>
    </vehicle>
    <vehicle id="f1.163" depart="745.32" departLane="free" departSpeed="random">
        <route edges="E0 link E2"/>
    </vehicle>
    <vehicle id="f2.11" depart="746.47" departLane="free" departSpeed="random">
        <route edges="-E2 -link -E0"/>
    </vehicle>
    <vehicle id="f1.164" depart="746.92" departLane="free" departSpeed="random">
        <route edges="E0 link E2"/>
    </vehicle>
    <vehicle id="f1.165" depart="746.95" departLane="free" departSpeed="random">
        <route edges="E0 link E2"/>
    </vehicle>
    <vehicle id="f1.166" depart="749.90" departLane="free" departSpeed="random">
        <route edges="E0 link E2"/>
    </vehicle>
    <vehicle id="f1.167" depart="753.31" departLane="free" departSpeed="random">
        <route edges="E0 link E2"/>
    </vehicle>
    <vehicle id="f1.168" depart="754.04" departLane="free" departSpeed="random">
        <route edges="E0 link E2"/>
    </vehicle>
    <vehicle id="f1.169" depart="759.77" departLane="free" departSpeed="random">
        <route edges="E0 link E2"/>
    </vehicle>
    <vehicle id="f1.170" depart="759.95" departLane="free" departSpeed="random">
        <route edges="E0 link E2"/>
    </vehicle>
    <vehicle id="f1.171" depart="762.70" departLane="free" departSpeed="random">
        <route edges="E0 link E2"/>
    </vehicle>
    <vehicle id="f1.172" depart="764.71" departLane="free" departSpeed="random">
        <route edges="E0 link E2"/>
    </vehicle>
    <vehicle id="f1.173" depart="768.93" departLane="free" departSpeed="random">
        <route edges="E0 link E2"/>
    </vehicle>
    <vehicle id="f1.174" depart="771.51" departLane="free" departSpeed="random">
        <route edges="E0 link E2"/>
    </vehicle>
    <vehicle id="f1.175" depart="777.98" departLane="free" departSpeed="random">
        <route edges="E0 link E2"/>
    </vehicle>
    <vehicle id="f1.176" depart="779.50" departLane="free" departSpeed="random">
        <route edges="E0 link E2"/>
    </vehicle>
    <vehicle id="test13" type="test" depart="780.00" departLane="free" departSpeed="random" color="0,255,242">
        <route color="0,255,242" edges="-E2 -link -E0"/>
    </vehicle>
    <vehicle id="f1.177" depart="781.33" departLane="free" departSpeed="random">
        <route edges="E0 link E2"/>
    </vehicle>
    <vehicle id="f1.178" depart="788.77" departLane="free" departSpeed="random">
        <route edges="E0 link E2"/>
    </vehicle>
    <vehicle id="f1.179" depart="795.22" departLane="free" departSpeed="random">
        <route edges="E0 link E2"/>
    </vehicle>
    <vehicle id="f1.180" depart="795.62" departLane="free" departSpeed="random">
        <route edges="E0 link E2"/>
    </vehicle>
    <vehicle id="f1.181" depart="796.92" departLane="free" departSpeed="random">
        <route edges="E0 link E2"/>
    </vehicle>
    <vehicle id="f1.182" depart="803.80" departLane="free" departSpeed="random">
        <route edges="E0 link E2"/>
    </vehicle>
    <vehicle id="f1.183" depart="806.15" departLane="free" departSpeed="random">
        <route edges="E0 link E2"/>
    </vehicle>
    <vehicle id="f1.184" depart="807.04" departLane="free" departSpeed="random">
        <route edges="E0 link E2"/>
    </vehicle>
    <vehicle id="f1.185" depart="807.95" departLane="free" departSpeed="random">
        <route edges="E0 link E2"/>
    </vehicle>
    <vehicle id="f1.186" depart="809.85" departLane="free" departSpeed="random">
        <route edges="E0 link E2"/>
    </vehicle>
    <vehicle id="f1.187" depart="811.51" departLane="free" departSpeed="random">
        <route edges="E0 link E2"/>
    </vehicle>