<?xml version="1.0" encoding="UTF-8"?>

<!-- generated on 2022-12-14 11:08:16 by Eclipse SUMO duarouter Version 1.15.0
<configuration xmlns:xsi="http://www.w3.org/2001/XMLSchema-instance" xsi:noNamespaceSchemaLocation="http://sumo.dlr.de/xsd/duarouterConfiguration.xsd">

    <input>
        <net-file value="data/SUMO_Traffic_Scenario/Scenario-6/network.net.xml"/>
        <route-files value="data/SUMO_Traffic_Scenario/Scenario-6/myflow.rou.xml"/>
    </input>

    <output>
        <output-file value="data/SUMO_Traffic_Scenario/Scenario-6/routes.rou.xml"/>
    </output>

    <processing>
        <randomize-flows value="true"/>
        <repair value="True"/>
    </processing>

    <defaults>
        <departlane value="free"/>
        <departspeed value="random"/>
    </defaults>

    <random_number>
        <random value="true"/>
    </random_number>

</configuration>
-->

<routes xmlns:xsi="http://www.w3.org/2001/XMLSchema-instance" xsi:noNamespaceSchemaLocation="http://sumo.dlr.de/xsd/routes_file.xsd">
    <vType id="test" length="5.00" maxSpeed="10.00" accel="0.8" decel="4.5" sigma="0.5"/>
    <vehicle id="test0" type="test" depart="0.00" departLane="free" departSpeed="random" color="0,255,242">
        <route color="0,255,242" edges="-E2 -link -E0"/>
    </vehicle>
    <vehicle id="f1.0" depart="0.13" departLane="free" departSpeed="random">
        <route edges="E0 link E2"/>
    </vehicle>
    <vehicle id="f1.1" depart="0.33" departLane="free" departSpeed="random">
        <route edges="E0 link E2"/>
    </vehicle>
    <vehicle id="f2.0" depart="0.64" departLane="free" departSpeed="random">
        <route edges="-E2 -link -E0"/>
    </vehicle>
    <vehicle id="f1.2" depart="0.71" departLane="free" departSpeed="random">
        <route edges="E0 link E2"/>
    </vehicle>
    <vehicle id="f1.3" depart="0.72" departLane="free" departSpeed="random">
        <route edges="E0 link E2"/>
    </vehicle>
    <vehicle id="f1.4" depart="1.21" departLane="free" departSpeed="random">
        <route edges="E0 link E2"/>
    </vehicle>
    <vehicle id="f1.5" depart="1.64" departLane="free" departSpeed="random">
        <route edges="E0 link E2"/>
    </vehicle>
    <vehicle id="f1.6" depart="1.69" departLane="free" departSpeed="random">
        <route edges="E0 link E2"/>
    </vehicle>
    <vehicle id="f1.7" depart="1.74" departLane="free" departSpeed="random">
        <route edges="E0 link E2"/>
    </vehicle>
    <vehicle id="f1.8" depart="2.05" departLane="free" departSpeed="random">
        <route edges="E0 link E2"/>
    </vehicle>
    <vehicle id="f2.1" depart="2.85" departLane="free" departSpeed="random">
        <route edges="-E2 -link -E0"/>
    </vehicle>
    <vehicle id="f1.9" depart="3.26" departLane="free" departSpeed="random">
        <route edges="E0 link E2"/>
    </vehicle>
    <vehicle id="f1.10" depart="3.45" departLane="free" departSpeed="random">
        <route edges="E0 link E2"/>
    </vehicle>
    <vehicle id="f1.11" depart="4.49" departLane="free" departSpeed="random">
        <route edges="E0 link E2"/>
    </vehicle>
    <vehicle id="f1.12" depart="4.79" departLane="free" departSpeed="random">
        <route edges="E0 link E2"/>
    </vehicle>
    <vehicle id="f1.13" depart="4.88" departLane="free" departSpeed="random">
        <route edges="E0 link E2"/>
    </vehicle>
    <vehicle id="f1.14" depart="5.07" departLane="free" departSpeed="random">
        <route edges="E0 link E2"/>
    </vehicle>
    <vehicle id="f2.2" depart="5.40" departLane="free" departSpeed="random">
        <route edges="-E2 -link -E0"/>
    </vehicle>
    <vehicle id="f2.3" depart="5.49" departLane="free" departSpeed="random">
        <route edges="-E2 -link -E0"/>
    </vehicle>
    <vehicle id="f1.15" depart="6.06" departLane="free" departSpeed="random">
        <route edges="E0 link E2"/>
    </vehicle>
    <vehicle id="f1.16" depart="6.25" departLane="free" departSpeed="random">
        <route edges="E0 link E2"/>
    </vehicle>
    <vehicle id="f1.17" depart="6.25" departLane="free" departSpeed="random">
        <route edges="E0 link E2"/>
    </vehicle>
    <vehicle id="f1.18" depart="6.62" departLane="free" departSpeed="random">
        <route edges="E0 link E2"/>
    </vehicle>
    <vehicle id="f1.19" depart="6.65" departLane="free" departSpeed="random">
        <route edges="E0 link E2"/>
    </vehicle>
    <vehicle id="f1.20" depart="6.70" departLane="free" departSpeed="random">
        <route edges="E0 link E2"/>
    </vehicle>
    <vehicle id="f1.21" depart="6.97" departLane="free" departSpeed="random">
        <route edges="E0 link E2"/>
    </vehicle>
    <vehicle id="f1.22" depart="7.00" departLane="free" departSpeed="random">
        <route edges="E0 link E2"/>
    </vehicle>
    <vehicle id="f1.23" depart="7.14" departLane="free" departSpeed="random">
        <route edges="E0 link E2"/>
    </vehicle>
    <vehicle id="f1.24" depart="7.58" departLane="free" departSpeed="random">
        <route edges="E0 link E2"/>
    </vehicle>
    <vehicle id="f1.25" depart="7.69" departLane="free" departSpeed="random">
        <route edges="E0 link E2"/>
    </vehicle>
    <vehicle id="f1.26" depart="7.75" departLane="free" departSpeed="random">
        <route edges="E0 link E2"/>
    </vehicle>
    <vehicle id="f1.27" depart="7.93" departLane="free" departSpeed="random">
        <route edges="E0 link E2"/>
    </vehicle>
    <vehicle id="f2.4" depart="8.00" departLane="free" departSpeed="random">
        <route edges="-E2 -link -E0"/>
    </vehicle>
    <vehicle id="f2.5" depart="8.92" departLane="free" departSpeed="random">
        <route edges="-E2 -link -E0"/>
    </vehicle>
    <vehicle id="f1.28" depart="9.06" departLane="free" departSpeed="random">
        <route edges="E0 link E2"/>
    </vehicle>
    <vehicle id="f1.29" depart="9.86" departLane="free" departSpeed="random">
        <route edges="E0 link E2"/>
    </vehicle>
    <vehicle id="f1.30" depart="10.24" departLane="free" departSpeed="random">
        <route edges="E0 link E2"/>
    </vehicle>
    <vehicle id="f1.31" depart="10.33" departLane="free" departSpeed="random">
        <route edges="E0 link E2"/>
    </vehicle>
    <vehicle id="f1.32" depart="10.69" departLane="free" departSpeed="random">
        <route edges="E0 link E2"/>
    </vehicle>
    <vehicle id="f1.33" depart="10.72" departLane="free" departSpeed="random">
        <route edges="E0 link E2"/>
    </vehicle>
    <vehicle id="f2.6" depart="11.04" departLane="free" departSpeed="random">
        <route edges="-E2 -link -E0"/>
    </vehicle>
    <vehicle id="f1.34" depart="11.11" departLane="free" departSpeed="random">
        <route edges="E0 link E2"/>
    </vehicle>
    <vehicle id="f1.35" depart="11.28" departLane="free" departSpeed="random">
        <route edges="E0 link E2"/>
    </vehicle>
    <vehicle id="f1.36" depart="11.37" departLane="free" departSpeed="random">
        <route edges="E0 link E2"/>
    </vehicle>
    <vehicle id="f1.37" depart="11.90" departLane="free" departSpeed="random">
        <route edges="E0 link E2"/>
    </vehicle>
    <vehicle id="f1.38" depart="12.14" departLane="free" departSpeed="random">
        <route edges="E0 link E2"/>
    </vehicle>
    <vehicle id="f2.7" depart="12.19" departLane="free" departSpeed="random">
        <route edges="-E2 -link -E0"/>
    </vehicle>
    <vehicle id="f1.39" depart="12.48" departLane="free" departSpeed="random">
        <route edges="E0 link E2"/>
    </vehicle>
    <vehicle id="f1.40" depart="12.97" departLane="free" departSpeed="random">
        <route edges="E0 link E2"/>
    </vehicle>
    <vehicle id="f1.41" depart="13.22" departLane="free" departSpeed="random">
        <route edges="E0 link E2"/>
    </vehicle>
    <vehicle id="f1.42" depart="13.44" departLane="free" departSpeed="random">
        <route edges="E0 link E2"/>
    </vehicle>
    <vehicle id="f1.43" depart="13.47" departLane="free" departSpeed="random">
        <route edges="E0 link E2"/>
    </vehicle>
    <vehicle id="f1.44" depart="13.77" departLane="free" departSpeed="random">
        <route edges="E0 link E2"/>
    </vehicle>
    <vehicle id="f1.45" depart="13.86" departLane="free" departSpeed="random">
        <route edges="E0 link E2"/>
    </vehicle>
    <vehicle id="f1.46" depart="14.01" departLane="free" departSpeed="random">
        <route edges="E0 link E2"/>
    </vehicle>
    <vehicle id="f1.47" depart="14.52" departLane="free" departSpeed="random">
        <route edges="E0 link E2"/>
    </vehicle>
    <vehicle id="f1.48" depart="14.82" departLane="free" departSpeed="random">
        <route edges="E0 link E2"/>
    </vehicle>
    <vehicle id="f1.49" depart="15.07" departLane="free" departSpeed="random">
        <route edges="E0 link E2"/>
    </vehicle>
    <vehicle id="f2.8" depart="15.25" departLane="free" departSpeed="random">
        <route edges="-E2 -link -E0"/>
    </vehicle>
    <vehicle id="f2.9" depart="15.51" departLane="free" departSpeed="random">
        <route edges="-E2 -link -E0"/>
    </vehicle>
    <vehicle id="f1.50" depart="15.99" departLane="free" departSpeed="random">
        <route edges="E0 link E2"/>
    </vehicle>
    <vehicle id="f1.51" depart="16.36" departLane="free" departSpeed="random">
        <route edges="E0 link E2"/>
    </vehicle>
    <vehicle id="f1.52" depart="16.38" departLane="free" departSpeed="random">
        <route edges="E0 link E2"/>
    </vehicle>
    <vehicle id="f1.53" depart="16.48" departLane="free" departSpeed="random">
        <route edges="E0 link E2"/>
    </vehicle>
    <vehicle id="f1.54" depart="16.93" departLane="free" departSpeed="random">
        <route edges="E0 link E2"/>
    </vehicle>
    <vehicle id="f1.55" depart="16.99" departLane="free" departSpeed="random">
        <route edges="E0 link E2"/>
    </vehicle>
    <vehicle id="f1.56" depart="17.34" departLane="free" departSpeed="random">
        <route edges="E0 link E2"/>
    </vehicle>
    <vehicle id="f1.57" depart="17.62" departLane="free" departSpeed="random">
        <route edges="E0 link E2"/>
    </vehicle>
    <vehicle id="f1.58" depart="18.00" departLane="free" departSpeed="random">
        <route edges="E0 link E2"/>
    </vehicle>
    <vehicle id="f1.59" depart="18.28" departLane="free" departSpeed="random">
        <route edges="E0 link E2"/>
    </vehicle>
    <vehicle id="f1.60" depart="18.92" departLane="free" departSpeed="random">
        <route edges="E0 link E2"/>
    </vehicle>
    <vehicle id="f1.61" depart="19.25" departLane="free" departSpeed="random">
        <route edges="E0 link E2"/>
    </vehicle>
    <vehicle id="f1.62" depart="19.32" departLane="free" departSpeed="random">
        <route edges="E0 link E2"/>
    </vehicle>
    <vehicle id="f1.63" depart="19.76" departLane="free" departSpeed="random">
        <route edges="E0 link E2"/>
    </vehicle>
    <vehicle id="f1.64" depart="19.93" departLane="free" departSpeed="random">
        <route edges="E0 link E2"/>
    </vehicle>
    <vehicle id="f1.65" depart="20.33" departLane="free" departSpeed="random">
        <route edges="E0 link E2"/>
    </vehicle>
    <vehicle id="f2.10" depart="20.63" departLane="free" departSpeed="random">
        <route edges="-E2 -link -E0"/>
    </vehicle>
    <vehicle id="f1.66" depart="20.74" departLane="free" departSpeed="random">
        <route edges="E0 link E2"/>
    </vehicle>
    <vehicle id="f2.11" depart="21.19" departLane="free" departSpeed="random">
        <route edges="-E2 -link -E0"/>
    </vehicle>
    <vehicle id="f2.12" depart="21.27" departLane="free" departSpeed="random">
        <route edges="-E2 -link -E0"/>
    </vehicle>
    <vehicle id="f1.67" depart="21.30" departLane="free" departSpeed="random">
        <route edges="E0 link E2"/>
    </vehicle>
    <vehicle id="f1.68" depart="21.41" departLane="free" departSpeed="random">
        <route edges="E0 link E2"/>
    </vehicle>
    <vehicle id="f1.69" depart="21.96" departLane="free" departSpeed="random">
        <route edges="E0 link E2"/>
    </vehicle>
    <vehicle id="f1.70" depart="22.00" departLane="free" departSpeed="random">
        <route edges="E0 link E2"/>
    </vehicle>
    <vehicle id="f2.13" depart="22.30" departLane="free" departSpeed="random">
        <route edges="-E2 -link -E0"/>
    </vehicle>
    <vehicle id="f1.71" depart="22.75" departLane="free" departSpeed="random">
        <route edges="E0 link E2"/>
    </vehicle>
    <vehicle id="f2.14" depart="22.76" departLane="free" departSpeed="random">
        <route edges="-E2 -link -E0"/>
    </vehicle>
    <vehicle id="f1.72" depart="22.92" departLane="free" departSpeed="random">
        <route edges="E0 link E2"/>
    </vehicle>
    <vehicle id="f1.73" depart="23.01" departLane="free" departSpeed="random">
        <route edges="E0 link E2"/>
    </vehicle>
    <vehicle id="f1.74" depart="23.26" departLane="free" departSpeed="random">
        <route edges="E0 link E2"/>
    </vehicle>
    <vehicle id="f2.15" depart="23.78" departLane="free" departSpeed="random">
        <route edges="-E2 -link -E0"/>
    </vehicle>
    <vehicle id="f1.75" depart="23.79" departLane="free" departSpeed="random">
        <route edges="E0 link E2"/>
    </vehicle>
    <vehicle id="f1.76" depart="24.56" departLane="free" departSpeed="random">
        <route edges="E0 link E2"/>
    </vehicle>
    <vehicle id="f1.77" depart="24.58" departLane="free" departSpeed="random">
        <route edges="E0 link E2"/>
    </vehicle>
    <vehicle id="f1.78" depart="24.77" departLane="free" departSpeed="random">
        <route edges="E0 link E2"/>
    </vehicle>
    <vehicle id="f1.79" depart="25.01" departLane="free" departSpeed="random">
        <route edges="E0 link E2"/>
    </vehicle>
    <vehicle id="f1.80" depart="25.07" departLane="free" departSpeed="random">
        <route edges="E0 link E2"/>
    </vehicle>
    <vehicle id="f1.81" depart="25.79" departLane="free" departSpeed="random">
        <route edges="E0 link E2"/>
    </vehicle>
    <vehicle id="f1.82" depart="26.50" departLane="free" departSpeed="random">
        <route edges="E0 link E2"/>
    </vehicle>
    <vehicle id="f1.83" depart="26.54" departLane="free" departSpeed="random">
        <route edges="E0 link E2"/>
    </vehicle>
    <vehicle id="f1.84" depart="26.73" departLane="free" departSpeed="random">
        <route edges="E0 link E2"/>
    </vehicle>
    <vehicle id="f1.85" depart="26.96" departLane="free" departSpeed="random">
        <route edges="E0 link E2"/>
    </vehicle>
    <vehicle id="f1.86" depart="27.20" departLane="free" departSpeed="random">
        <route edges="E0 link E2"/>
    </vehicle>
    <vehicle id="f1.87" depart="27.43" departLane="free" departSpeed="random">
        <route edges="E0 link E2"/>
    </vehicle>
    <vehicle id="f1.88" depart="27.44" departLane="free" departSpeed="random">
        <route edges="E0 link E2"/>
    </vehicle>
    <vehicle id="f1.89" depart="27.45" departLane="free" departSpeed="random">
        <route edges="E0 link E2"/>
    </vehicle>
    <vehicle id="f1.90" depart="27.64" departLane="free" departSpeed="random">
        <route edges="E0 link E2"/>
    </vehicle>
    <vehicle id="f1.91" depart="27.80" departLane="free" departSpeed="random">
        <route edges="E0 link E2"/>
    </vehicle>
    <vehicle id="f1.92" depart="27.85" departLane="free" departSpeed="random">
        <route edges="E0 link E2"/>
    </vehicle>
    <vehicle id="f2.16" depart="27.93" departLane="free" departSpeed="random">
        <route edges="-E2 -link -E0"/>
    </vehicle>
    <vehicle id="f2.17" depart="27.99" departLane="free" departSpeed="random">
        <route edges="-E2 -link -E0"/>
    </vehicle>
    <vehicle id="f1.93" depart="28.15" departLane="free" departSpeed="random">
        <route edges="E0 link E2"/>
    </vehicle>
    <vehicle id="f1.94" depart="28.45" departLane="free" departSpeed="random">
        <route edges="E0 link E2"/>
    </vehicle>
    <vehicle id="f1.95" depart="28.56" departLane="free" departSpeed="random">
        <route edges="E0 link E2"/>
    </vehicle>
    <vehicle id="f1.96" depart="28.72" departLane="free" departSpeed="random">
        <route edges="E0 link E2"/>
    </vehicle>
    <vehicle id="f1.97" depart="29.32" departLane="free" departSpeed="random">
        <route edges="E0 link E2"/>
    </vehicle>
    <vehicle id="f1.98" depart="29.81" departLane="free" departSpeed="random">
        <route edges="E0 link E2"/>
    </vehicle>
    <vehicle id="f1.99" depart="30.08" departLane="free" departSpeed="random">
        <route edges="E0 link E2"/>
    </vehicle>
    <vehicle id="f1.100" depart="30.34" departLane="free" departSpeed="random">
        <route edges="E0 link E2"/>
    </vehicle>
    <vehicle id="f1.101" depart="30.60" departLane="free" departSpeed="random">
        <route edges="E0 link E2"/>
    </vehicle>
    <vehicle id="f1.102" depart="30.60" departLane="free" departSpeed="random">
        <route edges="E0 link E2"/>
    </vehicle>
    <vehicle id="f1.103" depart="30.60" departLane="free" departSpeed="random">
        <route edges="E0 link E2"/>
    </vehicle>
    <vehicle id="f1.104" depart="30.69" departLane="free" departSpeed="random">
        <route edges="E0 link E2"/>
    </vehicle>
    <vehicle id="f1.105" depart="30.74" departLane="free" departSpeed="random">
        <route edges="E0 link E2"/>
    </vehicle>
    <vehicle id="f1.106" depart="30.81" departLane="free" departSpeed="random">
        <route edges="E0 link E2"/>
    </vehicle>
    <vehicle id="f1.107" depart="30.99" departLane="free" departSpeed="random">
        <route edges="E0 link E2"/>
    </vehicle>
    <vehicle id="f1.108" depart="31.12" departLane="free" departSpeed="random">
        <route edges="E0 link E2"/>
    </vehicle>
    <vehicle id="f1.109" depart="31.14" departLane="free" departSpeed="random">
        <route edges="E0 link E2"/>
    </vehicle>
    <vehicle id="f1.110" depart="31.15" departLane="free" departSpeed="random">
        <route edges="E0 link E2"/>
    </vehicle>
    <vehicle id="f1.111" depart="31.43" departLane="free" departSpeed="random">
        <route edges="E0 link E2"/>
    </vehicle>
    <vehicle id="f1.112" depart="31.47" departLane="free" departSpeed="random">
        <route edges="E0 link E2"/>
    </vehicle>
    <vehicle id="f1.113" depart="31.89" departLane="free" departSpeed="random">
        <route edges="E0 link E2"/>
    </vehicle>
    <vehicle id="f1.114" depart="31.98" departLane="free" departSpeed="random">
        <route edges="E0 link E2"/>
    </vehicle>
    <vehicle id="f1.115" depart="32.26" departLane="free" departSpeed="random">
        <route edges="E0 link E2"/>
    </vehicle>
    <vehicle id="f1.116" depart="32.38" departLane="free" departSpeed="random">
        <route edges="E0 link E2"/>
    </vehicle>
    <vehicle id="f1.117" depart="33.05" departLane="free" departSpeed="random">
        <route edges="E0 link E2"/>
    </vehicle>
    <vehicle id="f1.118" depart="33.58" departLane="free" departSpeed="random">
        <route edges="E0 link E2"/>
    </vehicle>
    <vehicle id="f1.119" depart="33.59" departLane="free" departSpeed="random">
        <route edges="E0 link E2"/>
    </vehicle>
    <vehicle id="f1.120" depart="33.65" departLane="free" departSpeed="random">
        <route edges="E0 link E2"/>
    </vehicle>
    <vehicle id="f1.121" depart="33.92" departLane="free" departSpeed="random">
        <route edges="E0 link E2"/>
    </vehicle>
    <vehicle id="f1.122" depart="34.42" departLane="free" departSpeed="random">
        <route edges="E0 link E2"/>
    </vehicle>
    <vehicle id="f1.123" depart="34.43" departLane="free" departSpeed="random">
        <route edges="E0 link E2"/>
    </vehicle>
    <vehicle id="f1.124" depart="34.48" departLane="free" departSpeed="random">
        <route edges="E0 link E2"/>
    </vehicle>
    <vehicle id="f1.125" depart="34.58" departLane="free" departSpeed="random">
        <route edges="E0 link E2"/>
    </vehicle>
    <vehicle id="f1.126" depart="34.95" departLane="free" departSpeed="random">
        <route edges="E0 link E2"/>
    </vehicle>
    <vehicle id="f1.127" depart="35.36" departLane="free" departSpeed="random">
        <route edges="E0 link E2"/>
    </vehicle>
    <vehicle id="f1.128" depart="35.56" departLane="free" departSpeed="random">
        <route edges="E0 link E2"/>
    </vehicle>
    <vehicle id="f1.129" depart="35.93" departLane="free" departSpeed="random">
        <route edges="E0 link E2"/>
    </vehicle>
    <vehicle id="f1.130" depart="35.98" departLane="free" departSpeed="random">
        <route edges="E0 link E2"/>
    </vehicle>
    <vehicle id="f1.131" depart="36.14" departLane="free" departSpeed="random">
        <route edges="E0 link E2"/>
    </vehicle>
    <vehicle id="f1.132" depart="36.40" departLane="free" departSpeed="random">
        <route edges="E0 link E2"/>
    </vehicle>
    <vehicle id="f1.133" depart="36.58" departLane="free" departSpeed="random">
        <route edges="E0 link E2"/>
    </vehicle>
    <vehicle id="f1.134" depart="36.92" departLane="free" departSpeed="random">
        <route edges="E0 link E2"/>
    </vehicle>
    <vehicle id="f1.135" depart="36.94" departLane="free" departSpeed="random">
        <route edges="E0 link E2"/>
    </vehicle>
    <vehicle id="f1.136" depart="37.17" departLane="free" departSpeed="random">
        <route edges="E0 link E2"/>
    </vehicle>
    <vehicle id="f1.137" depart="37.53" departLane="free" departSpeed="random">
        <route edges="E0 link E2"/>
    </vehicle>
    <vehicle id="f1.138" depart="37.79" departLane="free" departSpeed="random">
        <route edges="E0 link E2"/>
    </vehicle>
    <vehicle id="f1.139" depart="37.86" departLane="free" departSpeed="random">
        <route edges="E0 link E2"/>
    </vehicle>
    <vehicle id="f1.140" depart="37.89" departLane="free" departSpeed="random">
        <route edges="E0 link E2"/>
    </vehicle>
    <vehicle id="f1.141" depart="38.24" departLane="free" departSpeed="random">
        <route edges="E0 link E2"/>
    </vehicle>
    <vehicle id="f1.142" depart="38.30" departLane="free" departSpeed="random">
        <route edges="E0 link E2"/>
    </vehicle>
    <vehicle id="f1.143" depart="38.51" departLane="free" departSpeed="random">
        <route edges="E0 link E2"/>
    </vehicle>
    <vehicle id="f1.144" depart="38.57" departLane="free" departSpeed="random">
        <route edges="E0 link E2"/>
    </vehicle>
    <vehicle id="f1.145" depart="38.90" departLane="free" departSpeed="random">
        <route edges="E0 link E2"/>
    </vehicle>
    <vehicle id="f1.146" depart="38.96" departLane="free" departSpeed="random">
        <route edges="E0 link E2"/>
    </vehicle>
    <vehicle id="f2.18" depart="39.06" departLane="free" departSpeed="random">
        <route edges="-E2 -link -E0"/>
    </vehicle>
    <vehicle id="f1.147" depart="39.20" departLane="free" departSpeed="random">
        <route edges="E0 link E2"/>
    </vehicle>
    <vehicle id="f1.148" depart="40.03" departLane="free" departSpeed="random">
        <route edges="E0 link E2"/>
    </vehicle>
    <vehicle id="f1.149" depart="40.17" departLane="free" departSpeed="random">
        <route edges="E0 link E2"/>
    </vehicle>
    <vehicle id="f1.150" depart="40.59" departLane="free" departSpeed="random">
        <route edges="E0 link E2"/>
    </vehicle>
    <vehicle id="f1.151" depart="41.46" departLane="free" departSpeed="random">
        <route edges="E0 link E2"/>
    </vehicle>
    <vehicle id="f1.152" depart="41.49" departLane="free" departSpeed="random">
        <route edges="E0 link E2"/>
    </vehicle>
    <vehicle id="f1.153" depart="41.57" departLane="free" departSpeed="random">
        <route edges="E0 link E2"/>
    </vehicle>
    <vehicle id="f1.154" depart="41.59" departLane="free" departSpeed="random">
        <route edges="E0 link E2"/>
    </vehicle>
    <vehicle id="f1.155" depart="41.61" departLane="free" departSpeed="random">
        <route edges="E0 link E2"/>
    </vehicle>
    <vehicle id="f1.156" depart="41.69" departLane="free" departSpeed="random">
        <route edges="E0 link E2"/>
    </vehicle>
    <vehicle id="f1.157" depart="41.73" departLane="free" departSpeed="random">
        <route edges="E0 link E2"/>
    </vehicle>
    <vehicle id="f1.158" depart="41.75" departLane="free" departSpeed="random">
        <route edges="E0 link E2"/>
    </vehicle>
    <vehicle id="f2.19" depart="41.79" departLane="free" departSpeed="random">
        <route edges="-E2 -link -E0"/>
    </vehicle>
    <vehicle id="f1.159" depart="41.80" departLane="free" departSpeed="random">
        <route edges="E0 link E2"/>
    </vehicle>
    <vehicle id="f1.160" depart="41.82" departLane="free" departSpeed="random">
        <route edges="E0 link E2"/>
    </vehicle>
    <vehicle id="f1.161" depart="42.07" departLane="free" departSpeed="random">
        <route edges="E0 link E2"/>
    </vehicle>
    <vehicle id="f1.162" depart="42.65" departLane="free" departSpeed="random">
        <route edges="E0 link E2"/>
    </vehicle>
    <vehicle id="f1.163" depart="42.89" departLane="free" departSpeed="random">
        <route edges="E0 link E2"/>
    </vehicle>
    <vehicle id="f1.164" depart="43.09" departLane="free" departSpeed="random">
        <route edges="E0 link E2"/>
    </vehicle>
    <vehicle id="f1.165" depart="43.22" departLane="free" departSpeed="random">
        <route edges="E0 link E2"/>
    </vehicle>
    <vehicle id="f1.166" depart="43.64" departLane="free" departSpeed="random">
        <route edges="E0 link E2"/>
    </vehicle>
    <vehicle id="f1.167" depart="43.93" departLane="free" departSpeed="random">
        <route edges="E0 link E2"/>
    </vehicle>
    <vehicle id="f1.168" depart="44.04" departLane="free" departSpeed="random">
        <route edges="E0 link E2"/>
    </vehicle>
    <vehicle id="f1.169" depart="44.19" departLane="free" departSpeed="random">
        <route edges="E0 link E2"/>
    </vehicle>
    <vehicle id="f2.20" depart="44.57" departLane="free" departSpeed="random">
        <route edges="-E2 -link -E0"/>
    </vehicle>
    <vehicle id="f2.21" depart="44.60" departLane="free" departSpeed="random">
        <route edges="-E2 -link -E0"/>
    </vehicle>
    <vehicle id="f1.170" depart="44.66" departLane="free" departSpeed="random">
        <route edges="E0 link E2"/>
    </vehicle>
    <vehicle id="f1.171" depart="44.92" departLane="free" departSpeed="random">
        <route edges="E0 link E2"/>
    </vehicle>
    <vehicle id="f1.172" depart="45.17" departLane="free" departSpeed="random">
        <route edges="E0 link E2"/>
    </vehicle>
    <vehicle id="f1.173" depart="45.33" departLane="free" departSpeed="random">
        <route edges="E0 link E2"/>
    </vehicle>
    <vehicle id="f1.174" depart="45.81" departLane="free" departSpeed="random">
        <route edges="E0 link E2"/>
    </vehicle>
    <vehicle id="f1.175" depart="45.89" departLane="free" departSpeed="random">
        <route edges="E0 link E2"/>
    </vehicle>
    <vehicle id="f2.22" depart="45.93" departLane="free" departSpeed="random">
        <route edges="-E2 -link -E0"/>
    </vehicle>
    <vehicle id="f1.176" depart="46.83" departLane="free" departSpeed="random">
        <route edges="E0 link E2"/>
    </vehicle>
    <vehicle id="f1.177" depart="46.90" departLane="free" departSpeed="random">
        <route edges="E0 link E2"/>
    </vehicle>
    <vehicle id="f2.23" depart="47.26" departLane="free" departSpeed="random">
        <route edges="-E2 -link -E0"/>
    </vehicle>
    <vehicle id="f1.178" depart="47.47" departLane="free" departSpeed="random">
        <route edges="E0 link E2"/>
    </vehicle>
    <vehicle id="f1.179" depart="48.06" departLane="free" departSpeed="random">
        <route edges="E0 link E2"/>
    </vehicle>
    <vehicle id="f1.180" depart="48.89" departLane="free" departSpeed="random">
        <route edges="E0 link E2"/>
    </vehicle>
    <vehicle id="f1.181" depart="49.13" departLane="free" departSpeed="random">
        <route edges="E0 link E2"/>
    </vehicle>
    <vehicle id="f1.182" depart="49.18" departLane="free" departSpeed="random">
        <route edges="E0 link E2"/>
    </vehicle>
    <vehicle id="f1.183" depart="49.33" departLane="free" departSpeed="random">
        <route edges="E0 link E2"/>
    </vehicle>
    <vehicle id="f1.184" depart="49.37" departLane="free" departSpeed="random">
        <route edges="E0 link E2"/>
    </vehicle>
    <vehicle id="f1.185" depart="49.67" departLane="free" departSpeed="random">
        <route edges="E0 link E2"/>
    </vehicle>
    <vehicle id="f1.186" depart="50.08" departLane="free" departSpeed="random">
        <route edges="E0 link E2"/>
    </vehicle>
    <vehicle id="f1.187" depart="50.28" departLane="free" departSpeed="random">
        <route edges="E0 link E2"/>
    </vehicle>
    <vehicle id="f1.188" depart="50.33" departLane="free" departSpeed="random">
        <route edges="E0 link E2"/>
    </vehicle>
    <vehicle id="f1.189" depart="50.93" departLane="free" departSpeed="random">
        <route edges="E0 link E2"/>
    </vehicle>
    <vehicle id="f1.190" depart="51.03" departLane="free" departSpeed="random">
        <route edges="E0 link E2"/>
    </vehicle>
    <vehicle id="f1.191" depart="51.24" departLane="free" departSpeed="random">
        <route edges="E0 link E2"/>
    </vehicle>
    <vehicle id="f1.192" depart="51.72" departLane="free" departSpeed="random">
        <route edges="E0 link E2"/>
    </vehicle>
    <vehicle id="f1.193" depart="51.87" departLane="free" departSpeed="random">
        <route edges="E0 link E2"/>
    </vehicle>
    <vehicle id="f1.194" depart="51.88" departLane="free" departSpeed="random">
        <route edges="E0 link E2"/>
    </vehicle>
    <vehicle id="f1.195" depart="52.46" departLane="free" departSpeed="random">
        <route edges="E0 link E2"/>
    </vehicle>