<?xml version="1.0" encoding="UTF-8"?>

<!-- generated on 2022-12-14 11:08:21 by Eclipse SUMO duarouter Version 1.15.0
<configuration xmlns:xsi="http://www.w3.org/2001/XMLSchema-instance" xsi:noNamespaceSchemaLocation="http://sumo.dlr.de/xsd/duarouterConfiguration.xsd">

    <input>
        <net-file value="data/SUMO_Traffic_Scenario/Scenario-7/network.net.xml"/>
        <route-files value="data/SUMO_Traffic_Scenario/Scenario-7/myflow.rou.xml"/>
    </input>

    <output>
        <output-file value="data/SUMO_Traffic_Scenario/Scenario-7/routes.rou.xml"/>
    </output>

    <processing>
        <randomize-flows value="true"/>
        <repair value="True"/>
    </processing>

    <defaults>
        <departlane value="free"/>
        <departspeed value="random"/>
    </defaults>

    <random_number>
        <random value="true"/>
    </random_number>

</configuration>
-->

<routes xmlns:xsi="http://www.w3.org/2001/XMLSchema-instance" xsi:noNamespaceSchemaLocation="http://sumo.dlr.de/xsd/routes_file.xsd">
    <vType id="test" length="5.00" maxSpeed="10.00" accel="0.8" decel="4.5" sigma="0.5"/>
    <vehicle id="test0" type="test" depart="0.00" departLane="free" departSpeed="random" color="0,255,242">
        <route color="0,255,242" edges="-E2 -link -E0"/>
    </vehicle>
    <vehicle id="f2.0" depart="1.32" departLane="free" departSpeed="random">
        <route edges="-E2 -link -E0"/>
    </vehicle>
    <vehicle id="f1.0" depart="8.33" departLane="free" departSpeed="random">
        <route edges="E0 link E2"/>
    </vehicle>
    <vehicle id="f1.1" depart="9.90" departLane="free" departSpeed="random">
        <route edges="E0 link E2"/>
    </vehicle>
    <vehicle id="f1.2" depart="20.25" departLane="free" departSpeed="random">
        <route edges="E0 link E2"/>
    </vehicle>
    <vehicle id="f1.3" depart="20.55" departLane="free" departSpeed="random">
        <route edges="E0 link E2"/>
    </vehicle>
    <vehicle id="f1.4" depart="21.57" departLane="free" departSpeed="random">
        <route edges="E0 link E2"/>
    </vehicle>
    <vehicle id="f1.5" depart="21.65" departLane="free" departSpeed="random">
        <route edges="E0 link E2"/>
    </vehicle>
    <vehicle id="f1.6" depart="27.09" departLane="free" departSpeed="random">
        <route edges="E0 link E2"/>
    </vehicle>
    <vehicle id="f1.7" depart="31.78" departLane="free" departSpeed="random">
        <route edges="E0 link E2"/>
    </vehicle>
    <vehicle id="f1.8" depart="51.43" departLane="free" departSpeed="random">
        <route edges="E0 link E2"/>
    </vehicle>
    <vehicle id="f1.9" depart="53.25" departLane="free" departSpeed="random">
        <route edges="E0 link E2"/>
    </vehicle>
    <vehicle id="test1" type="test" depart="60.00" departLane="free" departSpeed="random" color="0,255,242">
        <route color="0,255,242" edges="-E2 -link -E0"/>
    </vehicle>
    <vehicle id="f1.10" depart="61.02" departLane="free" departSpeed="random">
        <route edges="E0 link E2"/>
    </vehicle>
    <vehicle id="f1.11" depart="69.75" departLane="free" departSpeed="random">
        <route edges="E0 link E2"/>
    </vehicle>
    <vehicle id="f1.12" depart="79.91" departLane="free" departSpeed="random">
        <route edges="E0 link E2"/>
    </vehicle>
    <vehicle id="f1.13" depart="80.56" departLane="free" departSpeed="random">
        <route edges="E0 link E2"/>
    </vehicle>
    <vehicle id="f1.14" depart="80.59" departLane="free" departSpeed="random">
        <route edges="E0 link E2"/>
    </vehicle>
    <vehicle id="f1.15" depart="83.13" departLane="free" departSpeed="random">
        <route edges="E0 link E2"/>
    </vehicle>
    <vehicle id="f1.16" depart="90.62" departLane="free" departSpeed="random">
        <route edges="E0 link E2"/>
    </vehicle>
    <vehicle id="f1.17" depart="97.29" departLane="free" departSpeed="random">
        <route edges="E0 link E2"/>
    </vehicle>
    <vehicle id="f1.18" depart="99.16" departLane="free" departSpeed="random">
        <route edges="E0 link E2"/>
    </vehicle>
    <vehicle id="f1.19" depart="102.12" departLane="free" departSpeed="random">
        <route edges="E0 link E2"/>
    </vehicle>
    <vehicle id="f1.20" depart="102.45" departLane="free" departSpeed="random">
        <route edges="E0 link E2"/>
    </vehicle>
    <vehicle id="f1.21" depart="106.62" departLane="free" departSpeed="random">
        <route edges="E0 link E2"/>
    </vehicle>
    <vehicle id="f2.1" depart="113.03" departLane="free" departSpeed="random">
        <route edges="-E2 -link -E0"/>
    </vehicle>
    <vehicle id="f2.2" depart="114.04" departLane="free" departSpeed="random">
        <route edges="-E2 -link -E0"/>
    </vehicle>
    <vehicle id="f1.22" depart="118.65" departLane="free" departSpeed="random">
        <route edges="E0 link E2"/>
    </vehicle>
    <vehicle id="test2" type="test" depart="120.00" departLane="free" departSpeed="random" color="0,255,242">
        <route color="0,255,242" edges="-E2 -link -E0"/>
    </vehicle>
    <vehicle id="f1.23" depart="123.65" departLane="free" departSpeed="random">
        <route edges="E0 link E2"/>
    </vehicle>
    <vehicle id="f1.24" depart="126.13" departLane="free" departSpeed="random">
        <route edges="E0 link E2"/>
    </vehicle>
    <vehicle id="f1.25" depart="127.32" departLane="free" departSpeed="random">
        <route edges="E0 link E2"/>
    </vehicle>
    <vehicle id="f1.26" depart="128.51" departLane="free" departSpeed="random">
        <route edges="E0 link E2"/>
    </vehicle>
    <vehicle id="f1.27" depart="132.01" departLane="free" departSpeed="random">
        <route edges="E0 link E2"/>
    </vehicle>
    <vehicle id="f1.28" depart="160.24" departLane="free" departSpeed="random">
        <route edges="E0 link E2"/>
    </vehicle>
    <vehicle id="f1.29" depart="166.99" departLane="free" departSpeed="random">
        <route edges="E0 link E2"/>
    </vehicle>
    <vehicle id="f1.30" depart="167.88" departLane="free" departSpeed="random">
        <route edges="E0 link E2"/>
    </vehicle>
    <vehicle id="test3" type="test" depart="180.00" departLane="free" departSpeed="random" color="0,255,242">
        <route color="0,255,242" edges="-E2 -link -E0"/>
    </vehicle>
    <vehicle id="f1.31" depart="185.27" departLane="free" departSpeed="random">
        <route edges="E0 link E2"/>
    </vehicle>
    <vehicle id="f1.32" depart="191.45" departLane="free" departSpeed="random">
        <route edges="E0 link E2"/>
    </vehicle>
    <vehicle id="f1.33" depart="196.01" departLane="free" departSpeed="random">
        <route edges="E0 link E2"/>
    </vehicle>
    <vehicle id="f1.34" depart="201.53" departLane="free" departSpeed="random">
        <route edges="E0 link E2"/>
    </vehicle>
    <vehicle id="f2.3" depart="206.60" departLane="free" departSpeed="random">
        <route edges="-E2 -link -E0"/>
    </vehicle>
    <vehicle id="f1.35" depart="208.04" departLane="free" departSpeed="random">
        <route edges="E0 link E2"/>
    </vehicle>
    <vehicle id="f1.36" depart="210.41" departLane="free" departSpeed="random">
        <route edges="E0 link E2"/>
    </vehicle>
    <vehicle id="f1.37" depart="211.57" departLane="free" departSpeed="random">
        <route edges="E0 link E2"/>
    </vehicle>
    <vehicle id="f1.38" depart="212.97" departLane="free" departSpeed="random">
        <route edges="E0 link E2"/>
    </vehicle>
    <vehicle id="f1.39" depart="218.10" departLane="free" departSpeed="random">
        <route edges="E0 link E2"/>
    </vehicle>
    <vehicle id="f1.40" depart="223.92" departLane="free" departSpeed="random">
        <route edges="E0 link E2"/>
    </vehicle>
    <vehicle id="f1.41" depart="226.41" departLane="free" departSpeed="random">
        <route edges="E0 link E2"/>
    </vehicle>
    <vehicle id="f1.42" depart="233.32" departLane="free" departSpeed="random">
        <route edges="E0 link E2"/>
    </vehicle>
    <vehicle id="f1.43" depart="234.20" departLane="free" departSpeed="random">
        <route edges="E0 link E2"/>
    </vehicle>
    <vehicle id="f1.44" depart="235.20" departLane="free" departSpeed="random">
        <route edges="E0 link E2"/>
    </vehicle>
    <vehicle id="test4" type="test" depart="240.00" departLane="free" departSpeed="random" color="0,255,242">
        <route color="0,255,242" edges="-E2 -link -E0"/>
    </vehicle>
    <vehicle id="f1.45" depart="240.53" departLane="free" departSpeed="random">
        <route edges="E0 link E2"/>
    </vehicle>
    <vehicle id="f1.46" depart="240.88" departLane="free" departSpeed="random">
        <route edges="E0 link E2"/>
    </vehicle>
    <vehicle id="f1.47" depart="248.47" departLane="free" departSpeed="random">
        <route edges="E0 link E2"/>
    </vehicle>
    <vehicle id="f1.48" depart="248.91" departLane="free" departSpeed="random">
        <route edges="E0 link E2"/>
    </vehicle>
    <vehicle id="f1.49" depart="250.98" departLane="free" departSpeed="random">
        <route edges="E0 link E2"/>
    </vehicle>
    <vehicle id="f1.50" depart="260.68" departLane="free" departSpeed="random">
        <route edges="E0 link E2"/>
    </vehicle>
    <vehicle id="f1.51" depart="268.72" departLane="free" departSpeed="random">
        <route edges="E0 link E2"/>
    </vehicle>
    <vehicle id="f1.52" depart="276.25" departLane="free" departSpeed="random">
        <route edges="E0 link E2"/>
    </vehicle>
    <vehicle id="f1.53" depart="288.15" departLane="free" departSpeed="random">
        <route edges="E0 link E2"/>
    </vehicle>
    <vehicle id="f1.54" depart="299.78" departLane="free" departSpeed="random">
        <route edges="E0 link E2"/>
    </vehicle>
    <vehicle id="test5" type="test" depart="300.00" departLane="free" departSpeed="random" color="0,255,242">
        <route color="0,255,242" edges="-E2 -link -E0"/>
    </vehicle>
    <vehicle id="f1.55" depart="309.04" departLane="free" departSpeed="random">
        <route edges="E0 link E2"/>
    </vehicle>
    <vehicle id="f1.56" depart="309.73" departLane="free" departSpeed="random">
        <route edges="E0 link E2"/>
    </vehicle>
    <vehicle id="f2.4" depart="311.49" departLane="free" departSpeed="random">
        <route edges="-E2 -link -E0"/>
    </vehicle>
    <vehicle id="f1.57" depart="313.10" departLane="free" departSpeed="random">
        <route edges="E0 link E2"/>
    </vehicle>
    <vehicle id="f1.58" depart="313.72" departLane="free" departSpeed="random">
        <route edges="E0 link E2"/>
    </vehicle>
    <vehicle id="f1.59" depart="320.20" departLane="free" departSpeed="random">
        <route edges="E0 link E2"/>
    </vehicle>
    <vehicle id="f1.60" depart="322.90" departLane="free" departSpeed="random">
        <route edges="E0 link E2"/>
    </vehicle>
    <vehicle id="f1.61" depart="327.72" departLane="free" departSpeed="random">
        <route edges="E0 link E2"/>
    </vehicle>
    <vehicle id="f1.62" depart="328.34" departLane="free" departSpeed="random">
        <route edges="E0 link E2"/>
    </vehicle>
    <vehicle id="f1.63" depart="328.89" departLane="free" departSpeed="random">
        <route edges="E0 link E2"/>
    </vehicle>
    <vehicle id="f1.64" depart="332.19" departLane="free" departSpeed="random">
        <route edges="E0 link E2"/>
    </vehicle>
    <vehicle id="f2.5" depart="332.97" departLane="free" departSpeed="random">
        <route edges="-E2 -link -E0"/>
    </vehicle>
    <vehicle id="f1.65" depart="336.60" departLane="free" departSpeed="random">
        <route edges="E0 link E2"/>
    </vehicle>
    <vehicle id="f1.66" depart="341.86" departLane="free" departSpeed="random">
        <route edges="E0 link E2"/>
    </vehicle>
    <vehicle id="f1.67" depart="342.12" departLane="free" departSpeed="random">
        <route edges="E0 link E2"/>
    </vehicle>
    <vehicle id="f1.68" depart="342.21" departLane="free" departSpeed="random">
        <route edges="E0 link E2"/>
    </vehicle>
    <vehicle id="f1.69" depart="342.39" departLane="free" departSpeed="random">
        <route edges="E0 link E2"/>
    </vehicle>
    <vehicle id="f1.70" depart="357.44" departLane="free" departSpeed="random">
        <route edges="E0 link E2"/>
    </vehicle>
    <vehicle id="f1.71" depart="359.32" departLane="free" departSpeed="random">
        <route edges="E0 link E2"/>
    </vehicle>
    <vehicle id="f1.72" depart="359.82" departLane="free" departSpeed="random">
        <route edges="E0 link E2"/>
    </vehicle>
    <vehicle id="test6" type="test" depart="360.00" departLane="free" departSpeed="random" color="0,255,242">
        <route color="0,255,242" edges="-E2 -link -E0"/>
    </vehicle>
    <vehicle id="f1.73" depart="363.15" departLane="free" departSpeed="random">
        <route edges="E0 link E2"/>
    </vehicle>
    <vehicle id="f1.74" depart="366.03" departLane="free" departSpeed="random">
        <route edges="E0 link E2"/>
    </vehicle>
    <vehicle id="f1.75" depart="368.16" departLane="free" departSpeed="random">
        <route edges="E0 link E2"/>
    </vehicle>
    <vehicle id="f2.6" depart="368.51" departLane="free" departSpeed="random">
        <route edges="-E2 -link -E0"/>
    </vehicle>
    <vehicle id="f1.76" depart="370.60" departLane="free" departSpeed="random">
        <route edges="E0 link E2"/>
    </vehicle>
    <vehicle id="f1.77" depart="371.05" departLane="free" departSpeed="random">
        <route edges="E0 link E2"/>
    </vehicle>
    <vehicle id="f1.78" depart="378.03" departLane="free" departSpeed="random">
        <route edges="E0 link E2"/>
    </vehicle>
    <vehicle id="f1.79" depart="381.96" departLane="free" departSpeed="random">
        <route edges="E0 link E2"/>
    </vehicle>
    <vehicle id="f1.80" depart="382.83" departLane="free" departSpeed="random">
        <route edges="E0 link E2"/>
    </vehicle>
    <vehicle id="f1.81" depart="384.25" departLane="free" departSpeed="random">
        <route edges="E0 link E2"/>
    </vehicle>
    <vehicle id="f1.82" depart="386.71" departLane="free" departSpeed="random">
        <route edges="E0 link E2"/>
    </vehicle>
    <vehicle id="f1.83" depart="400.18" departLane="free" departSpeed="random">
        <route edges="E0 link E2"/>
    </vehicle>
    <vehicle id="f1.84" depart="400.98" departLane="free" departSpeed="random">
        <route edges="E0 link E2"/>
    </vehicle>
    <vehicle id="f1.85" depart="407.58" departLane="free" departSpeed="random">
        <route edges="E0 link E2"/>
    </vehicle>
    <vehicle id="f1.86" depart="408.36" departLane="free" departSpeed="random">
        <route edges="E0 link E2"/>
    </vehicle>
    <vehicle id="f1.87" depart="414.93" departLane="free" departSpeed="random">
        <route edges="E0 link E2"/>
    </vehicle>
    <vehicle id="f1.88" depart="417.66" departLane="free" departSpeed="random">
        <route edges="E0 link E2"/>
    </vehicle>
    <vehicle id="test7" type="test" depart="420.00" departLane="free" departSpeed="random" color="0,255,242">
        <route color="0,255,242" edges="-E2 -link -E0"/>
    </vehicle>
    <vehicle id="f1.89" depart="429.59" departLane="free" departSpeed="random">
        <route edges="E0 link E2"/>
    </vehicle>
    <vehicle id="f1.90" depart="433.17" departLane="free" departSpeed="random">
        <route edges="E0 link E2"/>
    </vehicle>
    <vehicle id="f1.91" depart="437.88" departLane="free" departSpeed="random">
        <route edges="E0 link E2"/>
    </vehicle>
    <vehicle id="f1.92" depart="441.60" departLane="free" departSpeed="random">
        <route edges="E0 link E2"/>
    </vehicle>
    <vehicle id="f1.93" depart="442.79" departLane="free" departSpeed="random">
        <route edges="E0 link E2"/>
    </vehicle>
    <vehicle id="f1.94" depart="445.35" departLane="free" departSpeed="random">
        <route edges="E0 link E2"/>
    </vehicle>
    <vehicle id="f1.95" depart="446.15" departLane="free" departSpeed="random">
        <route edges="E0 link E2"/>
    </vehicle>
    <vehicle id="f1.96" depart="448.95" departLane="free" departSpeed="random">
        <route edges="E0 link E2"/>
    </vehicle>
    <vehicle id="f1.97" depart="451.33" departLane="free" departSpeed="random">
        <route edges="E0 link E2"/>
    </vehicle>
    <vehicle id="f1.98" depart="452.13" departLane="free" departSpeed="random">
        <route edges="E0 link E2"/>
    </vehicle>
    <vehicle id="f1.99" depart="452.30" departLane="free" departSpeed="random">
        <route edges="E0 link E2"/>
    </vehicle>
    <vehicle id="f1.100" depart="454.99" departLane="free" departSpeed="random">
        <route edges="E0 link E2"/>
    </vehicle>
    <vehicle id="f1.101" depart="455.13" departLane="free" departSpeed="random">
        <route edges="E0 link E2"/>
    </vehicle>
    <vehicle id="f1.102" depart="456.64" departLane="free" departSpeed="random">
        <route edges="E0 link E2"/>
    </vehicle>
    <vehicle id="f1.103" depart="459.97" departLane="free" departSpeed="random">
        <route edges="E0 link E2"/>
    </vehicle>
    <vehicle id="f1.104" depart="463.39" departLane="free" departSpeed="random">
        <route edges="E0 link E2"/>
    </vehicle>
    <vehicle id="f1.105" depart="463.73" departLane="free" departSpeed="random">
        <route edges="E0 link E2"/>
    </vehicle>
    <vehicle id="f1.106" depart="464.02" departLane="free" departSpeed="random">
        <route edges="E0 link E2"/>
    </vehicle>
    <vehicle id="f1.107" depart="465.24" departLane="free" departSpeed="random">
        <route edges="E0 link E2"/>
    </vehicle>
    <vehicle id="f1.108" depart="468.05" departLane="free" departSpeed="random">
        <route edges="E0 link E2"/>
    </vehicle>
    <vehicle id="f2.7" depart="470.09" departLane="free" departSpeed="random">
        <route edges="-E2 -link -E0"/>
    </vehicle>
    <vehicle id="f1.109" depart="470.20" departLane="free" departSpeed="random">
        <route edges="E0 link E2"/>
    </vehicle>
    <vehicle id="f1.110" depart="473.49" departLane="free" departSpeed="random">
        <route edges="E0 link E2"/>
    </vehicle>
    <vehicle id="f1.111" depart="473.99" departLane="free" departSpeed="random">
        <route edges="E0 link E2"/>
    </vehicle>
    <vehicle id="f1.112" depart="475.54" departLane="free" departSpeed="random">
        <route edges="E0 link E2"/>
    </vehicle>
    <vehicle id="test8" type="test" depart="480.00" departLane="free" departSpeed="random" color="0,255,242">
        <route color="0,255,242" edges="-E2 -link -E0"/>
    </vehicle>
    <vehicle id="f1.113" depart="480.38" departLane="free" departSpeed="random">
        <route edges="E0 link E2"/>
    </vehicle>
    <vehicle id="f1.114" depart="483.24" departLane="free" departSpeed="random">
        <route edges="E0 link E2"/>
    </vehicle>
    <vehicle id="f1.115" depart="484.19" departLane="free" departSpeed="random">
        <route edges="E0 link E2"/>
    </vehicle>
    <vehicle id="f1.116" depart="487.33" departLane="free" departSpeed="random">
        <route edges="E0 link E2"/>
    </vehicle>
    <vehicle id="f1.117" depart="490.16" departLane="free" departSpeed="random">
        <route edges="E0 link E2"/>
    </vehicle>
    <vehicle id="f1.118" depart="494.31" departLane="free" departSpeed="random">
        <route edges="E0 link E2"/>
    </vehicle>
    <vehicle id="f1.119" depart="496.75" departLane="free" departSpeed="random">
        <route edges="E0 link E2"/>
    </vehicle>
    <vehicle id="f1.120" depart="502.23" departLane="free" departSpeed="random">
        <route edges="E0 link E2"/>
    </vehicle>
    <vehicle id="f1.121" depart="515.15" departLane="free" departSpeed="random">
        <route edges="E0 link E2"/>
    </vehicle>
    <vehicle id="f1.122" depart="517.47" departLane="free" departSpeed="random">
        <route edges="E0 link E2"/>
    </vehicle>
    <vehicle id="f1.123" depart="522.75" departLane="free" departSpeed="random">
        <route edges="E0 link E2"/>
    </vehicle>
    <vehicle id="f1.124" depart="529.35" departLane="free" departSpeed="random">
        <route edges="E0 link E2"/>
    </vehicle>
    <vehicle id="f1.125" depart="529.78" departLane="free" departSpeed="random">
        <route edges="E0 link E2"/>
    </vehicle>
    <vehicle id="f1.126" depart="531.02" departLane="free" departSpeed="random">
        <route edges="E0 link E2"/>
    </vehicle>
    <vehicle id="f2.8" depart="535.06" departLane="free" departSpeed="random">
        <route edges="-E2 -link -E0"/>
    </vehicle>
    <vehicle id="f1.127" depart="537.43" departLane="free" departSpeed="random">
        <route edges="E0 link E2"/>
    </vehicle>
    <vehicle id="test9" type="test" depart="540.00" departLane="free" departSpeed="random" color="0,255,242">
        <route color="0,255,242" edges="-E2 -link -E0"/>
    </vehicle>
    <vehicle id="f1.128" depart="548.66" departLane="free" departSpeed="random">
        <route edges="E0 link E2"/>
    </vehicle>
    <vehicle id="f1.129" depart="551.26" departLane="free" departSpeed="random">
        <route edges="E0 link E2"/>
    </vehicle>
    <vehicle id="f1.130" depart="552.16" departLane="free" departSpeed="random">
        <route edges="E0 link E2"/>
    </vehicle>
    <vehicle id="f1.131" depart="552.30" departLane="free" departSpeed="random">
        <route edges="E0 link E2"/>
    </vehicle>
    <vehicle id="f1.132" depart="564.47" departLane="free" departSpeed="random">
        <route edges="E0 link E2"/>
    </vehicle>
    <vehicle id="f1.133" depart="577.55" departLane="free" departSpeed="random">
        <route edges="E0 link E2"/>
    </vehicle>
    <vehicle id="f1.134" depart="587.29" departLane="free" departSpeed="random">
        <route edges="E0 link E2"/>
    </vehicle>
    <vehicle id="f1.135" depart="590.24" departLane="free" departSpeed="random">
        <route edges="E0 link E2"/>
    </vehicle>
    <vehicle id="f1.136" depart="599.73" departLane="free" departSpeed="random">
        <route edges="E0 link E2"/>
    </vehicle>
    <vehicle id="test10" type="test" depart="600.00" departLane="free" departSpeed="random" color="0,255,242">
        <route color="0,255,242" edges="-E2 -link -E0"/>
    </vehicle>
    <vehicle id="f1.137" depart="605.17" departLane="free" departSpeed="random">
        <route edges="E0 link E2"/>
    </vehicle>
    <vehicle id="f1.138" depart="606.26" departLane="free" departSpeed="random">
        <route edges="E0 link E2"/>
    </vehicle>
    <vehicle id="f1.139" depart="608.11" departLane="free" departSpeed="random">
        <route edges="E0 link E2"/>
    </vehicle>
    <vehicle id="f1.140" depart="613.56" departLane="free" departSpeed="random">
        <route edges="E0 link E2"/>
    </vehicle>
    <vehicle id="f1.141" depart="622.96" departLane="free" departSpeed="random">
        <route edges="E0 link E2"/>
    </vehicle>
    <vehicle id="f1.142" depart="625.19" departLane="free" departSpeed="random">
        <route edges="E0 link E2"/>
    </vehicle>
    <vehicle id="f1.143" depart="627.37" departLane="free" departSpeed="random">
        <route edges="E0 link E2"/>
    </vehicle>
    <vehicle id="f1.144" depart="628.43" departLane="free" departSpeed="random">
        <route edges="E0 link E2"/>
    </vehicle>
    <vehicle id="f1.145" depart="630.33" departLane="free" departSpeed="random">
        <route edges="E0 link E2"/>
    </vehicle>
    <vehicle id="f1.146" depart="631.50" departLane="free" departSpeed="random">
        <route edges="E0 link E2"/>
    </vehicle>
    <vehicle id="f1.147" depart="631.90" departLane="free" departSpeed="random">
        <route edges="E0 link E2"/>
    </vehicle>
    <vehicle id="f1.148" depart="633.50" departLane="free" departSpeed="random">
        <route edges="E0 link E2"/>
    </vehicle>
    <vehicle id="f1.149" depart="633.57" departLane="free" departSpeed="random">
        <route edges="E0 link E2"/>
    </vehicle>
    <vehicle id="f1.150" depart="642.68" departLane="free" departSpeed="random">
        <route edges="E0 link E2"/>
    </vehicle>
    <vehicle id="f1.151" depart="645.08" departLane="free" departSpeed="random">
        <route edges="E0 link E2"/>
    </vehicle>
    <vehicle id="f1.152" depart="647.18" departLane="free" departSpeed="random">
        <route edges="E0 link E2"/>
    </vehicle>
    <vehicle id="f1.153" depart="650.18" departLane="free" departSpeed="random">
        <route edges="E0 link E2"/>
    </vehicle>
    <vehicle id="f1.154" depart="651.16" departLane="free" departSpeed="random">
        <route edges="E0 link E2"/>
    </vehicle>
    <vehicle id="f2.9" depart="656.46" departLane="free" departSpeed="random">
        <route edges="-E2 -link -E0"/>
    </vehicle>
    <vehicle id="f1.155" depart="658.68" departLane="free" departSpeed="random">
        <route edges="E0 link E2"/>
    </vehicle>
    <vehicle id="test11" type="test" depart="660.00" departLane="free" departSpeed="random" color="0,255,242">
        <route color="0,255,242" edges="-E2 -link -E0"/>
    </vehicle>
    <vehicle id="f1.156" depart="662.70" departLane="free" departSpeed="random">
        <route edges="E0 link E2"/>
    </vehicle>
    <vehicle id="f2.10" depart="666.18" departLane="free" departSpeed="random">
        <route edges="-E2 -link -E0"/>
    </vehicle>
    <vehicle id="f1.157" depart="671.60" departLane="free" departSpeed="random">
        <route edges="E0 link E2"/>
    </vehicle>
    <vehicle id="f1.158" depart="673.15" departLane="free" departSpeed="random">
        <route edges="E0 link E2"/>
    </vehicle>
    <vehicle id="f1.159" depart="680.21" departLane="free" departSpeed="random">
        <route edges="E0 link E2"/>
    </vehicle>
    <vehicle id="f1.160" depart="687.22" departLane="free" departSpeed="random">
        <route edges="E0 link E2"/>
    </vehicle>
    <vehicle id="f2.11" depart="689.28" departLane="free" departSpeed="random">
        <route edges="-E2 -link -E0"/>
    </vehicle>
    <vehicle id="f2.12" depart="695.02" departLane="free" departSpeed="random">
        <route edges="-E2 -link -E0"/>
    </vehicle>
    <vehicle id="f1.161" depart="701.03" departLane="free" departSpeed="random">
        <route edges="E0 link E2"/>
    </vehicle>
    <vehicle id="f1.162" depart="701.87" departLane="free" departSpeed="random">
        <route edges="E0 link E2"/>
    </vehicle>
    <vehicle id="f1.163" depart="702.67" departLane="free" departSpeed="random">
        <route edges="E0 link E2"/>
    </vehicle>
    <vehicle id="f1.164" depart="702.68" departLane="free" departSpeed="random">
        <route edges="E0 link E2"/>
    </vehicle>
    <vehicle id="f1.165" depart="703.23" departLane="free" departSpeed="random">
        <route edges="E0 link E2"/>
    </vehicle>
    <vehicle id="f1.166" depart="705.90" departLane="free" departSpeed="random">
        <route edges="E0 link E2"/>
    </vehicle>
    <vehicle id="f1.167" depart="706.16" departLane="free" departSpeed="random">
        <route edges="E0 link E2"/>
    </vehicle>
    <vehicle id="f1.168" depart="710.58" departLane="free" departSpeed="random">
        <route edges="E0 link E2"/>
    </vehicle>
    <vehicle id="f1.169" depart="711.00" departLane="free" departSpeed="random">
        <route edges="E0 link E2"/>
    </vehicle>
    <vehicle id="test12" type="test" depart="720.00" departLane="free" departSpeed="random" color="0,255,242">
        <route color="0,255,242" edges="-E2 -link -E0"/>
    </vehicle>
    <vehicle id="f1.170" depart="720.94" departLane="free" departSpeed="random">
        <route edges="E0 link E2"/>
    </vehicle>
    <vehicle id="f1.171" depart="728.39" departLane="free" departSpeed="random">
        <route edges="E0 link E2"/>
    </vehicle>
    <vehicle id="f1.172" depart="730.14" departLane="free" departSpeed="random">
        <route edges="E0 link E2"/>
    </vehicle>
    <vehicle id="f1.173" depart="733.19" departLane="free" departSpeed="random">
        <route edges="E0 link E2"/>
    </vehicle>
    <vehicle id="f1.174" depart="737.72" departLane="free" departSpeed="random">
        <route edges="E0 link E2"/>
    </vehicle>
    <vehicle id="f2.13" depart="747.79" departLane="free" departSpeed="random">
        <route edges="-E2 -link -E0"/>
    </vehicle>
    <vehicle id="f1.175" depart="748.62" departLane="free" departSpeed="random">
        <route edges="E0 link E2"/>
    </vehicle>
    <vehicle id="f1.176" depart="752.28" departLane="free" departSpeed="random">
        <route edges="E0 link E2"/>
    </vehicle>
    <vehicle id="f1.177" depart="753.55" departLane="free" departSpeed="random">
        <route edges="E0 link E2"/>
    </vehicle>
    <vehicle id="f1.178" depart="753.94" departLane="free" departSpeed="random">
        <route edges="E0 link E2"/>
    </vehicle>
    <vehicle id="f1.179" depart="757.32" departLane="free" departSpeed="random">
        <route edges="E0 link E2"/>
    </vehicle>
    <vehicle id="f1.180" depart="758.20" departLane="free" departSpeed="random">
        <route edges="E0 link E2"/>
    </vehicle>
    <vehicle id="f1.181" depart="758.47" departLane="free" departSpeed="random">
        <route edges="E0 link E2"/>
    </vehicle>
    <vehicle id="f1.182" depart="761.29" departLane="free" departSpeed="random">
        <route edges="E0 link E2"/>
    </vehicle>
    <vehicle id="f1.183" depart="763.61" departLane="free" departSpeed="random">
        <route edges="E0 link E2"/>
    </vehicle>
    <vehicle id="f1.184" depart="766.18" departLane="free" departSpeed="random">
        <route edges="E0 link E2"/>
    </vehicle>
    <vehicle id="f1.185" depart="766.80" departLane="free" departSpeed="random">
        <route edges="E0 link E2"/>
    </vehicle>
    <vehicle id="f1.186" depart="771.88" departLane="free" departSpeed="random">
        <route edges="E0 link E2"/>
    </vehicle>