<?xml version="1.0" encoding="UTF-8"?>

<!-- generated on 2022-02-02 18:09:41 by Eclipse SUMO netedit Version 1.12.0
-->

<routes xmlns:xsi="http://www.w3.org/2001/XMLSchema-instance" xsi:noNamespaceSchemaLocation="http://sumo.dlr.de/xsd/routes_file.xsd">
    <flow id="f1"  begin="0"  from="E0" to="E2" end="1200"  number="300"/>
    <flow id="f2"  begin="0"  from="-E2" to="-E0" end="1200"  number="400"/>

    <!--Type test vehicle-->
    <vType id="test" accel="0.8" decel="4.5" sigma="0.5" length="5" maxSpeed="10"/>
        <!--Type test route-->
        <route id="route0" color="#00fff2" edges="-E2 -link -E0"/>

    <vehicle id="test0"  type="test" route="route0" depart="0"    color="#00fff2"/>
    <vehicle id="test1"  type="test" route="route0" depart="60"  color="#00fff2"/>
    <vehicle id="test2"  type="test" route="route0" depart="120"  color="#00fff2"/>
    <vehicle id="test3"  type="test" route="route0" depart="180"  color="#00fff2"/>
    <vehicle id="test4"  type="test" route="route0" depart="240"  color="#00fff2"/>
    <vehicle id="test5"  type="test" route="route0" depart="300"  color="#00fff2"/>
    <vehicle id="test6"  type="test" route="route0" depart="360"  color="#00fff2"/>
    <vehicle id="test7"  type="test" route="route0" depart="420"  color="#00fff2"/>
    <vehicle id="test8"  type="test" route="route0" depart="480"  color="#00fff2"/>
    <vehicle id="test9"  type="test" route="route0" depart="540"  color="#00fff2"/>
    <vehicle id="test10" type="test" route="route0" depart="600" color="#00fff2"/>
    <vehicle id="test11" type="test" route="route0" depart="660" color="#00fff2"/>
    <vehicle id="test12" type="test" route="route0" depart="720" color="#00fff2"/>
    <vehicle id="test13" type="test" route="route0" depart="780" color="#00fff2"/>
    <vehicle id="test14" type="test" route="route0" depart="840" color="#00fff2"/>
    <vehicle id="test15" type="test" route="route0" depart="900" color="#00fff2"/>
    <vehicle id="test16" type="test" route="route0" depart="960" color="#00fff2"/>
    <vehicle id="test17" type="test" route="route0" depart="1020" color="#00fff2"/>
    <vehicle id="test18" type="test" route="route0" depart="1080" color="#00fff2"/>
    <vehicle id="test19" type="test" route="route0" depart="1140" color="#00fff2"/>
</routes>
