<?xml version="1.0" encoding="UTF-8"?>

<!-- generated on 2022-12-14 10:48:14 by Eclipse SUMO netedit Version 1.14.1
<configuration xmlns:xsi="http://www.w3.org/2001/XMLSchema-instance" xsi:noNamespaceSchemaLocation="http://sumo.dlr.de/xsd/netconvertConfiguration.xsd">

    <input>
        <sumo-net-file value="D:\Projects\tse_ga_v4\data\SUMO_Traffic_Scenario\Scenario-4\network.net.xml"/>
    </input>

    <output>
        <output-file value="D:\Projects\tse_ga_v4\data\SUMO_Traffic_Scenario\Scenario-4\network.net.xml"/>
    </output>

    <processing>
        <geometry.min-radius.fix.railways value="false"/>
        <geometry.max-grade.fix value="false"/>
        <offset.disable-normalization value="true"/>
        <lefthand value="false"/>
    </processing>

    <junctions>
        <no-turnarounds value="true"/>
        <junctions.corner-detail value="5"/>
        <junctions.limit-turn-speed value="5.5"/>
        <rectangular-lane-cut value="false"/>
    </junctions>

    <pedestrian>
        <walkingareas value="false"/>
    </pedestrian>

</configuration>
-->

<net version="1.9" junctionCornerDetail="5" limitTurnSpeed="5.50" xmlns:xsi="http://www.w3.org/2001/XMLSchema-instance" xsi:noNamespaceSchemaLocation="http://sumo.dlr.de/xsd/net_file.xsd">

    <location netOffset="0.00,0.00" convBoundary="-50.00,0.00,150.00,0.00" origBoundary="-10000000000.00,-10000000000.00,10000000000.00,10000000000.00" projParameter="!"/>

    <edge id=":end_0" function="internal">
        <lane id=":end_0_0" index="0" speed="20.00" length="0.10" shape="100.00,1.60 100.00,1.60"/>
    </edge>
    <edge id=":end_1" function="internal">
        <lane id=":end_1_0" index="0" speed="20.00" length="0.10" shape="100.00,-1.60 100.00,-1.60"/>
    </edge>
    <edge id=":start_0" function="internal">
        <lane id=":start_0_0" index="0" speed="20.00" length="0.10" shape="0.00,1.60 0.00,1.60"/>
    </edge>
    <edge id=":start_1" function="internal">
        <lane id=":start_1_0" index="0" speed="20.00" length="0.10" shape="0.00,-1.60 0.00,-1.60"/>
    </edge>

    <edge id="-E0" from="start" to="source" priority="-1">
        <lane id="-E0_0" index="0" speed="20.00" length="50.00" shape="0.00,1.60 -50.00,1.60"/>
    </edge>
    <edge id="-E2" from="sink" to="end" priority="-1">
        <lane id="-E2_0" index="0" speed="20.00" length="50.00" shape="150.00,1.60 100.00,1.60"/>
    </edge>
    <edge id="-link" from="end" to="start" priority="-1">
        <lane id="-link_0" index="0" speed="20.00" length="100.00" shape="100.00,1.60 0.00,1.60"/>
    </edge>
    <edge id="E0" from="source" to="start" priority="-1">
        <lane id="E0_0" index="0" speed="20.00" length="50.00" shape="-50.00,-1.60 0.00,-1.60"/>
    </edge>
    <edge id="E2" from="end" to="sink" priority="-1">
        <lane id="E2_0" index="0" speed="20.00" length="50.00" shape="100.00,-1.60 150.00,-1.60"/>
    </edge>
    <edge id="link" from="start" to="end" priority="-1">
        <lane id="link_0" index="0" speed="20.00" length="100.00" shape="0.00,-1.60 100.00,-1.60"/>
    </edge>

    <tlLogic id="end" type="static" programID="0" offset="0">
        <phase duration="16" state="rr"/>
        <phase duration="4"  state="yy"/>
        <phase duration="40" state="GG"/>
    </tlLogic>
    <tlLogic id="start" type="static" programID="0" offset="0">
        <phase duration="40" state="GG"/>
        <phase duration="4"  state="yy"/>
        <phase duration="16" state="rr"/>
    </tlLogic>

    <junction id="end" type="traffic_light_unregulated" x="100.00" y="0.00" incLanes="-E2_0 link_0" intLanes=":end_0_0 :end_1_0" shape="100.00,3.20 100.00,-3.20 100.00,3.20"/>
    <junction id="sink" type="dead_end" x="150.00" y="0.00" incLanes="E2_0" intLanes="" shape="150.00,0.00 150.00,-3.20 150.00,0.00"/>
    <junction id="source" type="dead_end" x="-50.00" y="0.00" incLanes="-E0_0" intLanes="" shape="-50.00,0.00 -50.00,3.20 -50.00,0.00"/>
    <junction id="start" type="traffic_light_unregulated" x="0.00" y="0.00" incLanes="-link_0 E0_0" intLanes=":start_0_0 :start_1_0" shape="0.00,3.20 0.00,-3.20 0.00,3.20"/>

    <connection from="-E2" to="-link" fromLane="0" toLane="0" via=":end_0_0" tl="end" linkIndex="0" dir="s" state="O"/>
    <connection from="-link" to="-E0" fromLane="0" toLane="0" via=":start_0_0" tl="start" linkIndex="0" dir="s" state="O"/>
    <connection from="E0" to="link" fromLane="0" toLane="0" via=":start_1_0" tl="start" linkIndex="1" dir="s" state="O"/>
    <connection from="link" to="E2" fromLane="0" toLane="0" via=":end_1_0" tl="end" linkIndex="1" dir="s" state="O"/>

    <connection from=":end_0" to="-link" fromLane="0" toLane="0" dir="s" state="M"/>
    <connection from=":end_1" to="E2" fromLane="0" toLane="0" dir="s" state="M"/>
    <connection from=":start_0" to="-E0" fromLane="0" toLane="0" dir="s" state="M"/>
    <connection from=":start_1" to="link" fromLane="0" toLane="0" dir="s" state="M"/>

</net>
