<?xml version="1.0" encoding="UTF-8"?>

<!-- generated on 2023-01-18 21:29:50 by Eclipse SUMO duarouter Version 1.15.0
<configuration xmlns:xsi="http://www.w3.org/2001/XMLSchema-instance" xsi:noNamespaceSchemaLocation="http://sumo.dlr.de/xsd/duarouterConfiguration.xsd">

    <input>
        <net-file value="data/SUMO_Traffic_Scenario/Scenario-9/network.net.xml"/>
        <route-files value="data/SUMO_Traffic_Scenario/Scenario-9/myflow.rou.xml"/>
    </input>

    <output>
        <output-file value="data/SUMO_Traffic_Scenario/Scenario-9/routes.rou.xml"/>
    </output>

    <processing>
        <randomize-flows value="true"/>
        <repair value="True"/>
    </processing>

    <defaults>
        <departlane value="free"/>
        <departspeed value="random"/>
    </defaults>

    <random_number>
        <random value="true"/>
    </random_number>

</configuration>
-->

<routes xmlns:xsi="http://www.w3.org/2001/XMLSchema-instance" xsi:noNamespaceSchemaLocation="http://sumo.dlr.de/xsd/routes_file.xsd">
    <vType id="test" length="5.00" maxSpeed="7.00" accel="0.8" decel="4.5" sigma="0.5"/>
    <vehicle id="test0" type="test" depart="0.00" departLane="free" departSpeed="random" color="0,255,242">
        <route color="0,255,242" edges="-E2 -link -E0"/>
    </vehicle>
    <vehicle id="f1.0" depart="0.77" departLane="free" departSpeed="random">
        <route edges="E0 link E2"/>
    </vehicle>
    <vehicle id="f1.1" depart="1.17" departLane="free" departSpeed="random">
        <route edges="E0 link E2"/>
    </vehicle>
    <vehicle id="f1.2" depart="3.78" departLane="free" departSpeed="random">
        <route edges="E0 link E2"/>
    </vehicle>
    <vehicle id="f1.3" depart="5.13" departLane="free" departSpeed="random">
        <route edges="E0 link E2"/>
    </vehicle>
    <vehicle id="f1.4" depart="11.93" departLane="free" departSpeed="random">
        <route edges="E0 link E2"/>
    </vehicle>
    <vehicle id="f1.5" depart="12.57" departLane="free" departSpeed="random">
        <route edges="E0 link E2"/>
    </vehicle>
    <vehicle id="f1.6" depart="17.05" departLane="free" departSpeed="random">
        <route edges="E0 link E2"/>
    </vehicle>
    <vehicle id="f1.7" depart="24.08" departLane="free" departSpeed="random">
        <route edges="E0 link E2"/>
    </vehicle>
    <vehicle id="f1.8" depart="26.02" departLane="free" departSpeed="random">
        <route edges="E0 link E2"/>
    </vehicle>
    <vehicle id="f1.9" depart="26.67" departLane="free" departSpeed="random">
        <route edges="E0 link E2"/>
    </vehicle>
    <vehicle id="f1.10" depart="28.25" departLane="free" departSpeed="random">
        <route edges="E0 link E2"/>
    </vehicle>
    <vehicle id="f2.0" depart="29.15" departLane="free" departSpeed="random">
        <route edges="-E2 -link -E0"/>
    </vehicle>
    <vehicle id="f1.11" depart="32.49" departLane="free" departSpeed="random">
        <route edges="E0 link E2"/>
    </vehicle>
    <vehicle id="f1.12" depart="35.54" departLane="free" departSpeed="random">
        <route edges="E0 link E2"/>
    </vehicle>
    <vehicle id="f1.13" depart="41.09" departLane="free" departSpeed="random">
        <route edges="E0 link E2"/>
    </vehicle>
    <vehicle id="f1.14" depart="41.85" departLane="free" departSpeed="random">
        <route edges="E0 link E2"/>
    </vehicle>
    <vehicle id="f1.15" depart="50.96" departLane="free" departSpeed="random">
        <route edges="E0 link E2"/>
    </vehicle>
    <vehicle id="f1.16" depart="51.18" departLane="free" departSpeed="random">
        <route edges="E0 link E2"/>
    </vehicle>
    <vehicle id="f1.17" depart="52.36" departLane="free" departSpeed="random">
        <route edges="E0 link E2"/>
    </vehicle>
    <vehicle id="f2.1" depart="53.94" departLane="free" departSpeed="random">
        <route edges="-E2 -link -E0"/>
    </vehicle>
    <vehicle id="f1.18" depart="58.45" departLane="free" departSpeed="random">
        <route edges="E0 link E2"/>
    </vehicle>
    <vehicle id="test1" type="test" depart="60.00" departLane="free" departSpeed="random" color="0,255,242">
        <route color="0,255,242" edges="-E2 -link -E0"/>
    </vehicle>
    <vehicle id="f1.19" depart="61.67" departLane="free" departSpeed="random">
        <route edges="E0 link E2"/>
    </vehicle>
    <vehicle id="f1.20" depart="71.27" departLane="free" departSpeed="random">
        <route edges="E0 link E2"/>
    </vehicle>
    <vehicle id="f1.21" depart="73.44" departLane="free" departSpeed="random">
        <route edges="E0 link E2"/>
    </vehicle>
    <vehicle id="f1.22" depart="74.14" departLane="free" departSpeed="random">
        <route edges="E0 link E2"/>
    </vehicle>
    <vehicle id="f1.23" depart="75.72" departLane="free" departSpeed="random">
        <route edges="E0 link E2"/>
    </vehicle>
    <vehicle id="f1.24" depart="85.54" departLane="free" departSpeed="random">
        <route edges="E0 link E2"/>
    </vehicle>
    <vehicle id="f1.25" depart="91.90" departLane="free" departSpeed="random">
        <route edges="E0 link E2"/>
    </vehicle>
    <vehicle id="f1.26" depart="94.69" departLane="free" departSpeed="random">
        <route edges="E0 link E2"/>
    </vehicle>
    <vehicle id="f1.27" depart="96.06" departLane="free" departSpeed="random">
        <route edges="E0 link E2"/>
    </vehicle>
    <vehicle id="f1.28" depart="97.28" departLane="free" departSpeed="random">
        <route edges="E0 link E2"/>
    </vehicle>
    <vehicle id="f1.29" depart="99.91" departLane="free" departSpeed="random">
        <route edges="E0 link E2"/>
    </vehicle>
    <vehicle id="f1.30" depart="107.35" departLane="free" departSpeed="random">
        <route edges="E0 link E2"/>
    </vehicle>
    <vehicle id="f1.31" depart="108.34" departLane="free" departSpeed="random">
        <route edges="E0 link E2"/>
    </vehicle>
    <vehicle id="f1.32" depart="109.97" departLane="free" departSpeed="random">
        <route edges="E0 link E2"/>
    </vehicle>
    <vehicle id="f1.33" depart="117.40" departLane="free" departSpeed="random">
        <route edges="E0 link E2"/>
    </vehicle>
    <vehicle id="f1.34" depart="118.64" departLane="free" departSpeed="random">
        <route edges="E0 link E2"/>
    </vehicle>
    <vehicle id="test2" type="test" depart="120.00" departLane="free" departSpeed="random" color="0,255,242">
        <route color="0,255,242" edges="-E2 -link -E0"/>
    </vehicle>
    <vehicle id="f1.35" depart="123.19" departLane="free" departSpeed="random">
        <route edges="E0 link E2"/>
    </vehicle>
    <vehicle id="f2.2" depart="125.08" departLane="free" departSpeed="random">
        <route edges="-E2 -link -E0"/>
    </vehicle>
    <vehicle id="f1.36" depart="125.50" departLane="free" departSpeed="random">
        <route edges="E0 link E2"/>
    </vehicle>
    <vehicle id="f1.37" depart="127.90" departLane="free" departSpeed="random">
        <route edges="E0 link E2"/>
    </vehicle>
    <vehicle id="f1.38" depart="133.70" departLane="free" departSpeed="random">
        <route edges="E0 link E2"/>
    </vehicle>
    <vehicle id="f1.39" depart="133.75" departLane="free" departSpeed="random">
        <route edges="E0 link E2"/>
    </vehicle>
    <vehicle id="f1.40" depart="146.20" departLane="free" departSpeed="random">
        <route edges="E0 link E2"/>
    </vehicle>
    <vehicle id="f1.41" depart="160.48" departLane="free" departSpeed="random">
        <route edges="E0 link E2"/>
    </vehicle>
    <vehicle id="f1.42" depart="160.64" departLane="free" departSpeed="random">
        <route edges="E0 link E2"/>
    </vehicle>
    <vehicle id="f1.43" depart="164.40" departLane="free" departSpeed="random">
        <route edges="E0 link E2"/>
    </vehicle>
    <vehicle id="f1.44" depart="164.68" departLane="free" departSpeed="random">
        <route edges="E0 link E2"/>
    </vehicle>
    <vehicle id="f1.45" depart="166.19" departLane="free" departSpeed="random">
        <route edges="E0 link E2"/>
    </vehicle>
    <vehicle id="f1.46" depart="166.90" departLane="free" departSpeed="random">
        <route edges="E0 link E2"/>
    </vehicle>
    <vehicle id="f2.3" depart="177.23" departLane="free" departSpeed="random">
        <route edges="-E2 -link -E0"/>
    </vehicle>
    <vehicle id="f2.4" depart="177.38" departLane="free" departSpeed="random">
        <route edges="-E2 -link -E0"/>
    </vehicle>
    <vehicle id="test3" type="test" depart="180.00" departLane="free" departSpeed="random" color="0,255,242">
        <route color="0,255,242" edges="-E2 -link -E0"/>
    </vehicle>
    <vehicle id="f1.47" depart="180.10" departLane="free" departSpeed="random">
        <route edges="E0 link E2"/>
    </vehicle>
    <vehicle id="f1.48" depart="190.44" departLane="free" departSpeed="random">
        <route edges="E0 link E2"/>
    </vehicle>
    <vehicle id="f1.49" depart="193.54" departLane="free" departSpeed="random">
        <route edges="E0 link E2"/>
    </vehicle>
    <vehicle id="f1.50" depart="198.14" departLane="free" departSpeed="random">
        <route edges="E0 link E2"/>
    </vehicle>
    <vehicle id="f1.51" depart="205.50" departLane="free" departSpeed="random">
        <route edges="E0 link E2"/>
    </vehicle>
    <vehicle id="f1.52" depart="205.76" departLane="free" departSpeed="random">
        <route edges="E0 link E2"/>
    </vehicle>
    <vehicle id="f1.53" depart="214.18" departLane="free" departSpeed="random">
        <route edges="E0 link E2"/>
    </vehicle>
    <vehicle id="f1.54" depart="216.35" departLane="free" departSpeed="random">
        <route edges="E0 link E2"/>
    </vehicle>
    <vehicle id="f1.55" depart="222.35" departLane="free" departSpeed="random">
        <route edges="E0 link E2"/>
    </vehicle>
    <vehicle id="f1.56" depart="228.36" departLane="free" departSpeed="random">
        <route edges="E0 link E2"/>
    </vehicle>
    <vehicle id="f1.57" depart="239.69" departLane="free" departSpeed="random">
        <route edges="E0 link E2"/>
    </vehicle>
    <vehicle id="test4" type="test" depart="240.00" departLane="free" departSpeed="random" color="0,255,242">
        <route color="0,255,242" edges="-E2 -link -E0"/>
    </vehicle>
    <vehicle id="f1.58" depart="240.25" departLane="free" departSpeed="random">
        <route edges="E0 link E2"/>
    </vehicle>
    <vehicle id="f1.59" depart="243.08" departLane="free" departSpeed="random">
        <route edges="E0 link E2"/>
    </vehicle>
    <vehicle id="f1.60" depart="245.64" departLane="free" departSpeed="random">
        <route edges="E0 link E2"/>
    </vehicle>
    <vehicle id="f1.61" depart="248.45" departLane="free" departSpeed="random">
        <route edges="E0 link E2"/>
    </vehicle>
    <vehicle id="f1.62" depart="252.35" departLane="free" departSpeed="random">
        <route edges="E0 link E2"/>
    </vehicle>
    <vehicle id="f1.63" depart="254.23" departLane="free" departSpeed="random">
        <route edges="E0 link E2"/>
    </vehicle>
    <vehicle id="f1.64" depart="259.58" departLane="free" departSpeed="random">
        <route edges="E0 link E2"/>
    </vehicle>
    <vehicle id="f1.65" depart="262.41" departLane="free" departSpeed="random">
        <route edges="E0 link E2"/>
    </vehicle>
    <vehicle id="f1.66" depart="269.88" departLane="free" departSpeed="random">
        <route edges="E0 link E2"/>
    </vehicle>
    <vehicle id="f1.67" depart="270.18" departLane="free" departSpeed="random">
        <route edges="E0 link E2"/>
    </vehicle>
    <vehicle id="f1.68" depart="272.22" departLane="free" departSpeed="random">
        <route edges="E0 link E2"/>
    </vehicle>
    <vehicle id="f1.69" depart="274.89" departLane="free" departSpeed="random">
        <route edges="E0 link E2"/>
    </vehicle>
    <vehicle id="f1.70" depart="289.05" departLane="free" departSpeed="random">
        <route edges="E0 link E2"/>
    </vehicle>
    <vehicle id="f1.71" depart="293.79" departLane="free" departSpeed="random">
        <route edges="E0 link E2"/>
    </vehicle>
    <vehicle id="f1.72" depart="294.31" departLane="free" departSpeed="random">
        <route edges="E0 link E2"/>
    </vehicle>
    <vehicle id="f1.73" depart="296.76" departLane="free" departSpeed="random">
        <route edges="E0 link E2"/>
    </vehicle>
    <vehicle id="test5" type="test" depart="300.00" departLane="free" departSpeed="random" color="0,255,242">
        <route color="0,255,242" edges="-E2 -link -E0"/>
    </vehicle>
    <vehicle id="f1.74" depart="306.92" departLane="free" departSpeed="random">
        <route edges="E0 link E2"/>
    </vehicle>
    <vehicle id="f1.75" depart="311.68" departLane="free" departSpeed="random">
        <route edges="E0 link E2"/>
    </vehicle>
    <vehicle id="f1.76" depart="314.84" departLane="free" departSpeed="random">
        <route edges="E0 link E2"/>
    </vehicle>
    <vehicle id="f1.77" depart="316.37" departLane="free" departSpeed="random">
        <route edges="E0 link E2"/>
    </vehicle>
    <vehicle id="f1.78" depart="327.94" departLane="free" departSpeed="random">
        <route edges="E0 link E2"/>
    </vehicle>
    <vehicle id="f1.79" depart="328.46" departLane="free" departSpeed="random">
        <route edges="E0 link E2"/>
    </vehicle>
    <vehicle id="f1.80" depart="330.45" departLane="free" departSpeed="random">
        <route edges="E0 link E2"/>
    </vehicle>
    <vehicle id="f2.5" depart="333.40" departLane="free" departSpeed="random">
        <route edges="-E2 -link -E0"/>
    </vehicle>
    <vehicle id="f1.81" depart="340.30" departLane="free" departSpeed="random">
        <route edges="E0 link E2"/>
    </vehicle>
    <vehicle id="f1.82" depart="348.33" departLane="free" departSpeed="random">
        <route edges="E0 link E2"/>
    </vehicle>
    <vehicle id="f1.83" depart="348.84" departLane="free" departSpeed="random">
        <route edges="E0 link E2"/>
    </vehicle>
    <vehicle id="f1.84" depart="348.99" departLane="free" departSpeed="random">
        <route edges="E0 link E2"/>
    </vehicle>
    <vehicle id="f1.85" depart="351.83" departLane="free" departSpeed="random">
        <route edges="E0 link E2"/>
    </vehicle>
    <vehicle id="f1.86" depart="352.18" departLane="free" departSpeed="random">
        <route edges="E0 link E2"/>
    </vehicle>
    <vehicle id="test6" type="test" depart="360.00" departLane="free" departSpeed="random" color="0,255,242">
        <route color="0,255,242" edges="-E2 -link -E0"/>
    </vehicle>
    <vehicle id="f1.87" depart="362.79" departLane="free" departSpeed="random">
        <route edges="E0 link E2"/>
    </vehicle>
    <vehicle id="f1.88" depart="364.50" departLane="free" departSpeed="random">
        <route edges="E0 link E2"/>
    </vehicle>
    <vehicle id="f1.89" depart="365.12" departLane="free" departSpeed="random">
        <route edges="E0 link E2"/>
    </vehicle>
    <vehicle id="f1.90" depart="371.98" departLane="free" departSpeed="random">
        <route edges="E0 link E2"/>
    </vehicle>
    <vehicle id="f1.91" depart="375.80" departLane="free" departSpeed="random">
        <route edges="E0 link E2"/>
    </vehicle>
    <vehicle id="f1.92" depart="375.86" departLane="free" departSpeed="random">
        <route edges="E0 link E2"/>
    </vehicle>
    <vehicle id="f1.93" depart="376.35" departLane="free" departSpeed="random">
        <route edges="E0 link E2"/>
    </vehicle>
    <vehicle id="f1.94" depart="377.95" departLane="free" departSpeed="random">
        <route edges="E0 link E2"/>
    </vehicle>
    <vehicle id="f1.95" depart="379.11" departLane="free" departSpeed="random">
        <route edges="E0 link E2"/>
    </vehicle>
    <vehicle id="f1.96" depart="385.74" departLane="free" departSpeed="random">
        <route edges="E0 link E2"/>
    </vehicle>
    <vehicle id="f1.97" depart="386.52" departLane="free" departSpeed="random">
        <route edges="E0 link E2"/>
    </vehicle>
    <vehicle id="f1.98" depart="387.33" departLane="free" departSpeed="random">
        <route edges="E0 link E2"/>
    </vehicle>
    <vehicle id="f1.99" depart="387.93" departLane="free" departSpeed="random">
        <route edges="E0 link E2"/>
    </vehicle>
    <vehicle id="f1.100" depart="395.34" departLane="free" departSpeed="random">
        <route edges="E0 link E2"/>
    </vehicle>
    <vehicle id="f2.6" depart="401.55" departLane="free" departSpeed="random">
        <route edges="-E2 -link -E0"/>
    </vehicle>
    <vehicle id="f1.101" depart="408.08" departLane="free" departSpeed="random">
        <route edges="E0 link E2"/>
    </vehicle>
    <vehicle id="f1.102" depart="408.21" departLane="free" departSpeed="random">
        <route edges="E0 link E2"/>
    </vehicle>
    <vehicle id="f1.103" depart="411.33" departLane="free" departSpeed="random">
        <route edges="E0 link E2"/>
    </vehicle>
    <vehicle id="f1.104" depart="416.88" departLane="free" departSpeed="random">
        <route edges="E0 link E2"/>
    </vehicle>
    <vehicle id="f1.105" depart="419.44" departLane="free" departSpeed="random">
        <route edges="E0 link E2"/>
    </vehicle>
    <vehicle id="f1.106" depart="419.64" departLane="free" departSpeed="random">
        <route edges="E0 link E2"/>
    </vehicle>
    <vehicle id="test7" type="test" depart="420.00" departLane="free" departSpeed="random" color="0,255,242">
        <route color="0,255,242" edges="-E2 -link -E0"/>
    </vehicle>
    <vehicle id="f1.107" depart="421.00" departLane="free" departSpeed="random">
        <route edges="E0 link E2"/>
    </vehicle>
    <vehicle id="f1.108" depart="423.12" departLane="free" departSpeed="random">
        <route edges="E0 link E2"/>
    </vehicle>
    <vehicle id="f1.109" depart="423.23" departLane="free" departSpeed="random">
        <route edges="E0 link E2"/>
    </vehicle>
    <vehicle id="f1.110" depart="424.40" departLane="free" departSpeed="random">
        <route edges="E0 link E2"/>
    </vehicle>
    <vehicle id="f1.111" depart="425.70" departLane="free" departSpeed="random">
        <route edges="E0 link E2"/>
    </vehicle>
    <vehicle id="f2.7" depart="428.66" departLane="free" departSpeed="random">
        <route edges="-E2 -link -E0"/>
    </vehicle>
    <vehicle id="f1.112" depart="436.61" departLane="free" departSpeed="random">
        <route edges="E0 link E2"/>
    </vehicle>
    <vehicle id="f1.113" depart="440.00" departLane="free" departSpeed="random">
        <route edges="E0 link E2"/>
    </vehicle>
    <vehicle id="f1.114" depart="443.80" departLane="free" departSpeed="random">
        <route edges="E0 link E2"/>
    </vehicle>
    <vehicle id="f1.115" depart="446.57" departLane="free" departSpeed="random">
        <route edges="E0 link E2"/>
    </vehicle>
    <vehicle id="f1.116" depart="447.79" departLane="free" departSpeed="random">
        <route edges="E0 link E2"/>
    </vehicle>
    <vehicle id="f1.117" depart="449.72" departLane="free" departSpeed="random">
        <route edges="E0 link E2"/>
    </vehicle>
    <vehicle id="f1.118" depart="452.42" departLane="free" departSpeed="random">
        <route edges="E0 link E2"/>
    </vehicle>
    <vehicle id="f1.119" depart="452.42" departLane="free" departSpeed="random">
        <route edges="E0 link E2"/>
    </vehicle>
    <vehicle id="f1.120" depart="461.33" departLane="free" departSpeed="random">
        <route edges="E0 link E2"/>
    </vehicle>
    <vehicle id="f1.121" depart="465.68" departLane="free" departSpeed="random">
        <route edges="E0 link E2"/>
    </vehicle>
    <vehicle id="f2.8" depart="467.35" departLane="free" departSpeed="random">
        <route edges="-E2 -link -E0"/>
    </vehicle>
    <vehicle id="f1.122" depart="471.20" departLane="free" departSpeed="random">
        <route edges="E0 link E2"/>
    </vehicle>
    <vehicle id="f1.123" depart="479.83" departLane="free" departSpeed="random">
        <route edges="E0 link E2"/>
    </vehicle>
    <vehicle id="test8" type="test" depart="480.00" departLane="free" departSpeed="random" color="0,255,242">
        <route color="0,255,242" edges="-E2 -link -E0"/>
    </vehicle>
    <vehicle id="f1.124" depart="491.15" departLane="free" departSpeed="random">
        <route edges="E0 link E2"/>
    </vehicle>
    <vehicle id="f1.125" depart="493.09" departLane="free" departSpeed="random">
        <route edges="E0 link E2"/>
    </vehicle>
    <vehicle id="f1.126" depart="497.78" departLane="free" departSpeed="random">
        <route edges="E0 link E2"/>
    </vehicle>
    <vehicle id="f1.127" depart="508.69" departLane="free" departSpeed="random">
        <route edges="E0 link E2"/>
    </vehicle>
    <vehicle id="f1.128" depart="514.79" departLane="free" departSpeed="random">
        <route edges="E0 link E2"/>
    </vehicle>
    <vehicle id="f1.129" depart="516.65" departLane="free" departSpeed="random">
        <route edges="E0 link E2"/>
    </vehicle>
    <vehicle id="f1.130" depart="522.28" departLane="free" departSpeed="random">
        <route edges="E0 link E2"/>
    </vehicle>
    <vehicle id="f1.131" depart="523.88" departLane="free" departSpeed="random">
        <route edges="E0 link E2"/>
    </vehicle>
    <vehicle id="f1.132" depart="524.39" departLane="free" departSpeed="random">
        <route edges="E0 link E2"/>
    </vehicle>
    <vehicle id="f1.133" depart="525.65" departLane="free" departSpeed="random">
        <route edges="E0 link E2"/>
    </vehicle>
    <vehicle id="f1.134" depart="533.99" departLane="free" departSpeed="random">
        <route edges="E0 link E2"/>
    </vehicle>
    <vehicle id="f1.135" depart="535.93" departLane="free" departSpeed="random">
        <route edges="E0 link E2"/>
    </vehicle>
    <vehicle id="f1.136" depart="537.84" departLane="free" departSpeed="random">
        <route edges="E0 link E2"/>
    </vehicle>
    <vehicle id="f1.137" depart="539.40" departLane="free" departSpeed="random">
        <route edges="E0 link E2"/>
    </vehicle>
    <vehicle id="test9" type="test" depart="540.00" departLane="free" departSpeed="random" color="0,255,242">
        <route color="0,255,242" edges="-E2 -link -E0"/>
    </vehicle>
    <vehicle id="f1.138" depart="541.94" departLane="free" departSpeed="random">
        <route edges="E0 link E2"/>
    </vehicle>
    <vehicle id="f1.139" depart="550.26" departLane="free" departSpeed="random">
        <route edges="E0 link E2"/>
    </vehicle>
    <vehicle id="f1.140" depart="552.22" departLane="free" departSpeed="random">
        <route edges="E0 link E2"/>
    </vehicle>
    <vehicle id="f1.141" depart="555.62" departLane="free" departSpeed="random">
        <route edges="E0 link E2"/>
    </vehicle>
    <vehicle id="f1.142" depart="556.31" departLane="free" departSpeed="random">
        <route edges="E0 link E2"/>
    </vehicle>
    <vehicle id="f1.143" depart="565.77" departLane="free" departSpeed="random">
        <route edges="E0 link E2"/>
    </vehicle>
    <vehicle id="f1.144" depart="567.41" departLane="free" departSpeed="random">
        <route edges="E0 link E2"/>
    </vehicle>
    <vehicle id="f1.145" depart="572.68" departLane="free" departSpeed="random">
        <route edges="E0 link E2"/>
    </vehicle>
    <vehicle id="f1.146" depart="575.20" departLane="free" departSpeed="random">
        <route edges="E0 link E2"/>
    </vehicle>
    <vehicle id="f1.147" depart="597.34" departLane="free" departSpeed="random">
        <route edges="E0 link E2"/>
    </vehicle>
    <vehicle id="f1.148" depart="599.07" departLane="free" departSpeed="random">
        <route edges="E0 link E2"/>
    </vehicle>
    <vehicle id="test10" type="test" depart="600.00" departLane="free" departSpeed="random" color="0,255,242">
        <route color="0,255,242" edges="-E2 -link -E0"/>
    </vehicle>
    <vehicle id="f1.149" depart="602.68" departLane="free" departSpeed="random">
        <route edges="E0 link E2"/>
    </vehicle>
    <vehicle id="f1.150" depart="605.82" departLane="free" departSpeed="random">
        <route edges="E0 link E2"/>
    </vehicle>
    <vehicle id="f1.151" depart="610.26" departLane="free" departSpeed="random">
        <route edges="E0 link E2"/>
    </vehicle>
    <vehicle id="f1.152" depart="611.46" departLane="free" departSpeed="random">
        <route edges="E0 link E2"/>
    </vehicle>
    <vehicle id="f1.153" depart="618.83" departLane="free" departSpeed="random">
        <route edges="E0 link E2"/>
    </vehicle>
    <vehicle id="f1.154" depart="624.51" departLane="free" departSpeed="random">
        <route edges="E0 link E2"/>
    </vehicle>
    <vehicle id="f1.155" depart="634.30" departLane="free" departSpeed="random">
        <route edges="E0 link E2"/>
    </vehicle>
    <vehicle id="f2.9" depart="639.40" departLane="free" departSpeed="random">
        <route edges="-E2 -link -E0"/>
    </vehicle>
    <vehicle id="f1.156" depart="641.33" departLane="free" departSpeed="random">
        <route edges="E0 link E2"/>
    </vehicle>
    <vehicle id="f1.157" depart="645.50" departLane="free" departSpeed="random">
        <route edges="E0 link E2"/>
    </vehicle>
    <vehicle id="f1.158" depart="654.87" departLane="free" departSpeed="random">
        <route edges="E0 link E2"/>
    </vehicle>
    <vehicle id="f1.159" depart="656.22" departLane="free" departSpeed="random">
        <route edges="E0 link E2"/>
    </vehicle>
    <vehicle id="f1.160" depart="659.74" departLane="free" departSpeed="random">
        <route edges="E0 link E2"/>
    </vehicle>
    <vehicle id="test11" type="test" depart="660.00" departLane="free" departSpeed="random" color="0,255,242">
        <route color="0,255,242" edges="-E2 -link -E0"/>
    </vehicle>
    <vehicle id="f1.161" depart="663.84" departLane="free" departSpeed="random">
        <route edges="E0 link E2"/>
    </vehicle>
    <vehicle id="f1.162" depart="664.62" departLane="free" departSpeed="random">
        <route edges="E0 link E2"/>
    </vehicle>
    <vehicle id="f1.163" depart="681.41" departLane="free" departSpeed="random">
        <route edges="E0 link E2"/>
    </vehicle>
    <vehicle id="f1.164" depart="681.81" departLane="free" departSpeed="random">
        <route edges="E0 link E2"/>
    </vehicle>
    <vehicle id="f1.165" depart="682.25" departLane="free" departSpeed="random">
        <route edges="E0 link E2"/>
    </vehicle>
    <vehicle id="f1.166" depart="686.03" departLane="free" departSpeed="random">
        <route edges="E0 link E2"/>
    </vehicle>
    <vehicle id="f1.167" depart="686.92" departLane="free" departSpeed="random">
        <route edges="E0 link E2"/>
    </vehicle>
    <vehicle id="f1.168" depart="686.99" departLane="free" departSpeed="random">
        <route edges="E0 link E2"/>
    </vehicle>
    <vehicle id="f2.10" depart="690.50" departLane="free" departSpeed="random">
        <route edges="-E2 -link -E0"/>
    </vehicle>
    <vehicle id="f1.169" depart="696.42" departLane="free" departSpeed="random">
        <route edges="E0 link E2"/>
    </vehicle>
    <vehicle id="f1.170" depart="700.83" departLane="free" departSpeed="random">
        <route edges="E0 link E2"/>
    </vehicle>
    <vehicle id="f1.171" depart="701.76" departLane="free" departSpeed="random">
        <route edges="E0 link E2"/>
    </vehicle>
    <vehicle id="f1.172" depart="704.45" departLane="free" departSpeed="random">
        <route edges="E0 link E2"/>
    </vehicle>
    <vehicle id="f1.173" depart="712.01" departLane="free" departSpeed="random">
        <route edges="E0 link E2"/>
    </vehicle>
    <vehicle id="f1.174" depart="713.02" departLane="free" departSpeed="random">
        <route edges="E0 link E2"/>
    </vehicle>
    <vehicle id="test12" type="test" depart="720.00" departLane="free" departSpeed="random" color="0,255,242">
        <route color="0,255,242" edges="-E2 -link -E0"/>
    </vehicle>
    <vehicle id="f1.175" depart="725.43" departLane="free" departSpeed="random">
        <route edges="E0 link E2"/>
    </vehicle>
    <vehicle id="f1.176" depart="726.03" departLane="free" departSpeed="random">
        <route edges="E0 link E2"/>
    </vehicle>
    <vehicle id="f1.177" depart="729.17" departLane="free" departSpeed="random">
        <route edges="E0 link E2"/>
    </vehicle>
    <vehicle id="f1.178" depart="729.82" departLane="free" departSpeed="random">
        <route edges="E0 link E2"/>
    </vehicle>
    <vehicle id="f1.179" depart="735.95" departLane="free" departSpeed="random">
        <route edges="E0 link E2"/>
    </vehicle>
    <vehicle id="f1.180" depart="738.05" departLane="free" departSpeed="random">
        <route edges="E0 link E2"/>
    </vehicle>
    <vehicle id="f1.181" depart="743.16" departLane="free" departSpeed="random">
        <route edges="E0 link E2"/>
    </vehicle>
    <vehicle id="f1.182" depart="746.43" departLane="free" departSpeed="random">
        <route edges="E0 link E2"/>
    </vehicle>
    <vehicle id="f1.183" depart="750.48" departLane="free" departSpeed="random">
        <route edges="E0 link E2"/>
    </vehicle>
    <vehicle id="f1.184" depart="757.55" departLane="free" departSpeed="random">
        <route edges="E0 link E2"/>
    </vehicle>
    <vehicle id="f1.185" depart="761.20" departLane="free" departSpeed="random">
        <route edges="E0 link E2"/>
    </vehicle>
    <vehicle id="f1.186" depart="762.67" departLane="free" departSpeed="random">
        <route edges="E0 link E2"/>
    </vehicle>
    <vehicle id="f1.187" depart="764.02" departLane="free" departSpeed="random">
        <route edges="E0 link E2"/>
    </vehicle>
    <vehicle id="f1.188" depart="765.11" departLane="free" departSpeed="random">
        <route edges="E0 link E2"/>
    </vehicle>
    <vehicle id="f1.189" depart="775.51" departLane="free" departSpeed="random">
        <route edges="E0 link E2"/>
    </vehicle>
    <vehicle id="f1.190" depart="777.56" departLane="free" departSpeed="random">
        <route edges="E0 link E2"/>